
     RDKit          3D

 19 20  0  0  0  0  0  0  0  0999 V2000
   39.8820   38.5160   25.9200 C   0  0  0  0  0  0  0  0  0  0  0  0
   43.5500   38.3720   29.5880 C   0  0  0  0  0  0  0  0  0  0  0  0
   41.7150   36.4360   23.7890 O   0  0  0  0  0  0  0  0  0  0  0  0
   40.5420   35.6440   25.9490 C   0  0  0  0  0  0  0  0  0  0  0  0
   39.8610   34.7060   25.6550 O   0  0  0  0  0  0  0  0  0  0  0  0
   38.7710   39.2510   24.8570 S   0  0  0  0  0  0  0  0  0  0  0  0
   40.1050   37.0420   25.5800 C   0  0  0  0  0  0  0  0  0  0  0  0
   44.2580   34.5680   29.9020 N   0  0  0  0  0  0  0  0  0  0  0  0
   42.7680   35.1190   27.1880 C   0  0  0  0  0  0  0  0  0  0  0  0
   42.2030   37.3240   26.2710 C   0  0  0  0  0  0  0  0  0  0  0  0
   41.4360   37.3740   24.8990 C   0  0  0  0  0  0  0  0  0  0  0  0
   44.1010   37.0960   30.2470 C   0  0  0  0  0  0  0  0  0  0  0  0
   39.3750   39.6750   23.6800 C   0  0  0  0  0  0  0  0  0  0  0  0
   43.5520   35.8050   29.5620 C   0  0  0  0  0  0  0  0  0  0  0  0
   43.5500   36.0510   28.0810 C   0  0  0  0  0  0  0  0  0  0  0  0
   41.7190   35.8820   26.5860 N   0  0  0  0  0  0  0  0  0  0  0  0
   42.2380   38.6660   30.1140 O   0  0  0  0  0  0  0  0  0  0  0  0
   37.3200   38.4060   25.4370 C   0  0  0  0  0  0  0  0  0  0  0  0
   43.3610   37.4050   27.3570 C   0  0  0  0  0  0  0  0  0  0  0  0
  2 17  1  0
  2 12  1  0
  4 16  1  0
  5  4  2  0
  6 13  2  0
  6 18  1  0
  6  1  1  0
  7  1  1  0
  7  4  1  0
  9 15  1  0
 10 16  1  0
 10 19  1  0
 11  3  1  0
 11  7  1  0
 11 10  1  0
 14  8  1  0
 14 12  1  0
 15 14  1  0
 16  9  1  0
 19 15  1  0
M  END
$$$$

     RDKit          3D

 12 11  0  0  0  0  0  0  0  0999 V2000
   38.9870   38.3480   24.8450 O   0  0  0  0  0  0  0  0  0  0  0  0
   39.3880   37.0520   25.1540 C   0  0  0  0  0  0  0  0  0  0  0  0
   43.4100   35.9370   26.6390 O   0  0  0  0  0  0  0  0  0  0  0  0
   41.0830   36.7180   29.2190 O   0  0  0  0  0  0  0  0  0  0  0  0
   42.2730   36.0080   28.7290 C   0  0  0  0  0  0  0  0  0  0  0  0
   40.9550   38.2100   26.3950 C   0  0  0  0  0  0  0  0  0  0  0  0
   41.0610   35.7810   26.5060 N   0  0  0  0  0  0  0  0  0  0  0  0
   41.7490   38.6700   25.6060 C   0  0  0  0  0  0  0  0  0  0  0  0
   40.4730   36.9660   25.9960 C   0  0  0  0  0  0  0  0  0  0  0  0
   42.2400   34.6130   29.4600 C   0  0  0  0  0  0  0  0  0  0  0  0
   42.2640   35.8690   27.2480 C   0  0  0  0  0  0  0  0  0  0  0  0
   43.6510   36.8670   29.3780 S   0  0  0  0  0  0  0  0  0  0  0  0
  1  2  1  0
  2  9  1  0
  3 11  2  0
  5  4  1  0
  5 12  1  0
  5 10  1  0
  7 11  1  0
  8  6  1  0
  9  6  1  0
  9  7  2  3
 11  5  1  0
M  END
$$$$

     RDKit          3D

 15 14  0  0  0  0  0  0  0  0999 V2000
   43.0190   35.2120   27.4580 C   0  0  0  0  0  0  0  0  0  0  0  0
   39.7500   38.1330   25.6930 C   0  0  0  0  0  0  0  0  0  0  0  0
   41.1440   36.0000   28.9120 N   0  0  0  0  0  0  0  0  0  0  0  0
   40.5870   37.9940   26.8170 O   0  0  0  0  0  0  0  0  0  0  0  0
   43.2910   38.0410   28.7390 C   0  0  0  0  0  0  0  0  0  0  0  0
   40.4390   37.5500   24.4450 C   0  0  0  0  0  0  0  0  0  0  0  0
   39.3250   35.8730   23.0000 O   0  0  0  0  0  0  0  0  0  0  0  0
   40.1520   36.0470   24.2510 C   0  0  0  0  0  0  0  0  0  0  0  0
   43.2460   34.3110   28.5760 N   0  0  0  0  0  0  0  0  0  0  0  0
   41.3610   36.8000   26.8110 C   0  0  0  0  0  0  0  0  0  0  0  0
   39.3880   39.5960   25.5470 C   0  0  0  0  0  0  0  0  0  0  0  0
   41.8270   36.0900   27.8350 C   0  0  0  0  0  0  0  0  0  0  0  0
   39.8220   35.2610   25.2440 O   0  0  0  0  0  0  0  0  0  0  0  0
   43.9040   36.7170   29.3460 C   0  0  0  0  0  0  0  0  0  0  0  0
   43.5630   35.2140   29.7810 C   0  0  0  0  0  0  0  0  0  0  0  0
  1 12  1  0
  1  9  1  0
  2 11  1  0
  2  4  1  0
  5 14  1  0
  6  2  1  0
  7  8  2  0
  8  6  1  0
  8 13  1  0
  9 15  1  0
 10  4  1  0
 10 12  1  0
 12  3  2  0
 14 15  1  0
M  END
$$$$

     RDKit          3D

  9  8  0  0  0  0  0  0  0  0999 V2000
   40.9210   37.0860   27.8820 O   0  0  0  0  0  0  0  0  0  0  0  0
   43.5420   35.3840   27.4960 C   0  0  0  0  0  0  0  0  0  0  0  0
   40.3360   35.2570   25.9440 O   0  0  0  0  0  0  0  0  0  0  0  0
   44.2020   36.5700   30.7150 O   0  0  0  0  0  0  0  0  0  0  0  0
   41.1570   36.1170   26.8080 P   0  0  0  0  0  0  0  0  0  0  0  0
   41.8290   34.7700   29.3020 C   0  0  0  0  0  0  0  0  0  0  0  0
   42.7720   35.7530   26.4700 C   0  0  0  0  0  0  0  0  0  0  0  0
   43.7270   36.3020   29.6260 C   0  0  0  0  0  0  0  0  0  0  0  0
   43.0980   35.5320   28.8170 C   0  0  0  0  0  0  0  0  0  0  0  0
  2  9  1  0
  5  3  1  0
  5  1  2  0
  7  5  1  0
  7  2  2  3
  8  4  2  0
  9  6  1  0
  9  8  1  0
M  END
$$$$

     RDKit          3D

 17 16  0  0  0  0  0  0  0  0999 V2000
   43.4850   35.4620   27.8030 C   0  0  0  0  0  0  0  0  0  0  0  0
   39.9250   35.5170   25.2360 C   0  0  0  0  0  0  0  0  0  0  0  0
   41.7900   34.2750   29.1020 C   0  0  0  0  0  0  0  0  0  0  0  0
   41.2920   36.0200   27.2270 C   0  0  0  0  0  0  0  0  0  0  0  0
   44.4200   35.8850   28.4990 O   0  0  0  0  0  0  0  0  0  0  0  0
   39.6000   36.7320   24.3620 C   0  0  0  0  0  0  0  0  0  0  0  0
   41.7650   37.0130   26.2230 N   0  0  0  0  0  0  0  0  0  0  0  0
   39.3280   38.9210   25.7370 C   0  0  0  0  0  0  0  0  0  0  0  0
   43.0320   38.9650   25.4480 N   0  0  0  0  0  0  0  0  0  0  0  0
   40.2950   35.1690   26.5160 N   0  0  0  0  0  0  0  0  0  0  0  0
   43.4580   38.0030   27.7880 C   0  0  0  0  0  0  0  0  0  0  0  0
   42.7990   38.0030   26.4470 C   0  0  0  0  0  0  0  0  0  0  0  0
   44.6760   38.4220   27.7110 N   0  0  0  0  0  0  0  0  0  0  0  0
   42.2040   35.2070   28.0700 N   0  0  0  0  0  0  0  0  0  0  0  0
   42.0140   37.1240   29.5700 O   0  0  0  0  0  0  0  0  0  0  0  0
   42.6290   37.4340   28.7040 C   0  0  0  0  0  0  0  0  0  0  0  0
   40.4120   38.3210   24.5280 S   0  0  0  0  0  0  0  0  0  0  0  0
  1 14  1  0
  1  5  2  0
  2 10  1  0
  4  7  1  0
  4 14  1  0
  6 17  1  0
  6  2  1  0
  7 12  1  0
  9 12  2  0
 10  4  1  0
 11 16  2  0
 12 11  1  0
 13 11  1  0
 14  3  1  0
 16 15  2  0
 17  8  1  0
M  END
$$$$

     RDKit          3D

  9  8  0  0  0  0  0  0  0  0999 V2000
   41.3600   37.4150   28.7780 C   0  0  0  0  0  0  0  0  0  0  0  0
   45.2940   35.8680   27.8690 O   0  0  0  0  0  0  0  0  0  0  0  0
   40.4510   36.6050   28.1680 O   0  0  0  0  0  0  0  0  0  0  0  0
   42.3030   34.3550   28.5430 O   0  0  0  0  0  0  0  0  0  0  0  0
   43.0050   35.4660   27.9420 C   0  0  0  0  0  0  0  0  0  0  0  0
   42.7860   36.6310   28.7590 C   0  0  0  0  0  0  0  0  0  0  0  0
   42.5240   35.9170   26.6880 N   0  0  0  0  0  0  0  0  0  0  0  0
   41.1640   35.4700   26.2800 O   0  0  0  0  0  0  0  0  0  0  0  0
   44.3990   35.1810   27.6010 C   0  0  0  0  0  0  0  0  0  0  0  0
  3  1  1  0
  5  4  1  0
  5  6  1  0
  6  1  1  0
  7  5  1  0
  8  7  1  0
  9  2  2  0
  9  5  1  0
M  END
$$$$

     RDKit          3D

 15 15  0  0  0  0  0  0  0  0999 V2000
   43.9840   37.8850   25.9020 O   0  0  0  0  0  0  0  0  0  0  0  0
   40.6460   37.0940   28.1910 O   0  0  0  0  0  0  0  0  0  0  0  0
   39.8640   37.1110   25.2710 O   0  0  0  0  0  0  0  0  0  0  0  0
   42.6930   35.8310   29.6410 O   0  0  0  0  0  0  0  0  0  0  0  0
   40.2550   38.2800   25.4610 C   0  0  0  0  0  0  0  0  0  0  0  0
   41.5660   36.8640   27.4480 C   0  0  0  0  0  0  0  0  0  0  0  0
   39.2850   39.3950   25.0330 C   0  0  0  0  0  0  0  0  0  0  0  0
   40.4150   35.7730   25.5990 C   0  0  0  0  0  0  0  0  0  0  0  0
   39.7280   34.8470   25.4730 O   0  0  0  0  0  0  0  0  0  0  0  0
   41.8220   35.9230   26.2920 C   0  0  0  0  0  0  0  0  0  0  0  0
   43.2020   35.7400   28.3860 C   0  0  0  0  0  0  0  0  0  0  0  0
   44.0260   36.7940   26.5940 C   0  0  0  0  0  0  0  0  0  0  0  0
   43.0630   37.0410   27.8920 C   0  0  0  0  0  0  0  0  0  0  0  0
   39.6120   39.8460   23.6180 C   0  0  0  0  0  0  0  0  0  0  0  0
   42.7360   34.9700   27.1040 C   0  0  0  0  0  0  0  0  0  0  0  0
  1 12  1  0
  3  5  1  0
  3  8  1  0
  6 13  1  0
  6  2  2  0
  7  5  1  0
  9  8  2  0
 10  8  1  0
 10 15  1  0
 10  6  1  0
 11  4  1  0
 13 12  1  0
 13 11  1  0
 14  7  1  0
 15 11  1  0
M  END
$$$$

     RDKit          3D

 14 14  0  0  0  0  0  0  0  0999 V2000
   42.1140   37.7820   27.0440 O   0  0  0  0  0  0  0  0  0  0  0  0
   43.1270   34.9470   30.0520 N   0  0  0  0  0  0  0  0  0  0  0  0
   41.0090   38.3030   26.2990 C   0  0  0  0  0  0  0  0  0  0  0  0
   40.3030   37.0350   25.7450 C   0  0  0  0  0  0  0  0  0  0  0  0
   40.9290   39.1300   23.8900 O   0  0  0  0  0  0  0  0  0  0  0  0
   42.1570   36.3250   26.9440 C   0  0  0  0  0  0  0  0  0  0  0  0
   41.0160   39.4760   25.3050 C   0  0  0  0  0  0  0  0  0  0  0  0
   40.0920   34.7130   26.5210 O   0  0  0  0  0  0  0  0  0  0  0  0
   40.8880   36.5320   24.5050 O   0  0  0  0  0  0  0  0  0  0  0  0
   42.8630   36.0200   29.2220 C   0  0  0  0  0  0  0  0  0  0  0  0
   44.1520   34.9240   27.5030 O   0  0  0  0  0  0  0  0  0  0  0  0
   42.2230   37.0120   29.5440 O   0  0  0  0  0  0  0  0  0  0  0  0
   40.6110   36.0250   26.8790 C   0  0  0  0  0  0  0  0  0  0  0  0
   43.4180   36.1060   27.8180 C   0  0  0  0  0  0  0  0  0  0  0  0
  3  7  1  0
  3  1  1  0
  4  9  1  0
  4  3  1  0
  4 13  1  0
  5  7  1  0
  6  1  1  0
  6 14  1  0
 10 12  2  0
 10  2  1  0
 13  8  1  0
 13  6  1  0
 14 11  1  0
 14 10  1  0
M  END
$$$$

     RDKit          3D

 13 13  0  0  0  0  0  0  0  0999 V2000
   40.1470   36.4040   25.6400 C   0  0  0  0  0  0  0  0  0  0  0  0
   42.9350   37.4720   29.4140 C   0  0  0  0  0  0  0  0  0  0  0  0
   43.9400   37.1060   30.2250 N   0  0  0  0  0  0  0  0  0  0  0  0
   42.4010   36.4250   28.5480 C   0  0  0  0  0  0  0  0  0  0  0  0
   43.0080   35.0340   28.5810 C   0  0  0  0  0  0  0  0  0  0  0  0
   40.6490   37.6720   25.7290 C   0  0  0  0  0  0  0  0  0  0  0  0
   41.4360   36.6850   27.5390 C   0  0  0  0  0  0  0  0  0  0  0  0
   41.2370   37.8620   26.9660 N   0  0  0  0  0  0  0  0  0  0  0  0
   42.5280   38.6910   29.4890 O   0  0  0  0  0  0  0  0  0  0  0  0
   41.9610   34.0610   29.0890 N   0  0  0  0  0  0  0  0  0  0  0  0
   39.4960   35.4910   24.3580 S   0  0  0  0  0  0  0  0  0  0  0  0
   40.5940   35.6760   26.8510 N   0  0  0  0  0  0  0  0  0  0  0  0
   40.8130   38.6660   24.6960 C   0  0  0  0  0  0  0  0  0  0  0  0
  1  6  1  0
  1 12  1  0
  2  9  2  0
  2  3  1  0
  4  5  1  0
  4  2  1  0
  5 10  1  0
  6 13  1  0
  6  8  1  0
  7  4  1  0
  8  7  2  0
 11  1  2  0
 12  7  1  0
M  END
$$$$

     RDKit          3D

  7  6  0  0  0  0  0  0  0  0999 V2000
   40.0550   37.2660   27.5160 O   0  0  0  0  0  0  0  0  0  0  0  0
   43.6300   35.3550   28.4660 N   0  0  0  0  0  0  0  0  0  0  0  0
   42.2030   36.8820   27.1800 N   0  0  0  0  0  0  0  0  0  0  0  0
   41.1030   36.6520   27.7900 C   0  0  0  0  0  0  0  0  0  0  0  0
   42.4090   34.8290   29.1110 C   0  0  0  0  0  0  0  0  0  0  0  0
   41.0920   35.5720   28.8960 C   0  0  0  0  0  0  0  0  0  0  0  0
   44.1720   35.1390   27.1020 C   0  0  0  0  0  0  0  0  0  0  0  0
  1  4  2  0
  2  5  1  0
  3  4  1  0
  4  6  1  0
  6  5  2  3
  7  2  1  0
M  END
$$$$

     RDKit          3D

 17 18  0  0  0  0  0  0  0  0999 V2000
   39.4690   39.7700   24.1890 O   0  0  0  0  0  0  0  0  0  0  0  0
   40.2800   35.8890   27.6080 C   0  0  0  0  0  0  0  0  0  0  0  0
   41.0410   37.2550   26.1090 C   0  0  0  0  0  0  0  0  0  0  0  0
   41.4870   38.7990   24.4780 O   0  0  0  0  0  0  0  0  0  0  0  0
   40.1750   38.9250   24.8120 C   0  0  0  0  0  0  0  0  0  0  0  0
   42.1410   35.1500   28.9830 C   0  0  0  0  0  0  0  0  0  0  0  0
   40.6940   34.8940   25.5930 O   0  0  0  0  0  0  0  0  0  0  0  0
   40.6060   35.8640   25.7610 C   0  0  0  0  0  0  0  0  0  0  0  0
   43.6350   35.1800   28.6700 C   0  0  0  0  0  0  0  0  0  0  0  0
   41.7480   37.6030   24.8430 N   0  0  0  0  0  0  0  0  0  0  0  0
   43.7980   36.7880   28.8460 C   0  0  0  0  0  0  0  0  0  0  0  0
   45.4270   36.1080   30.7620 C   0  0  0  0  0  0  0  0  0  0  0  0
   44.3710   34.2670   29.5360 N   0  0  0  0  0  0  0  0  0  0  0  0
   44.6820   37.1660   30.0020 C   0  0  0  0  0  0  0  0  0  0  0  0
   41.2950   36.2450   28.5300 N   0  0  0  0  0  0  0  0  0  0  0  0
   39.9370   38.1790   26.0160 O   0  0  0  0  0  0  0  0  0  0  0  0
   45.6420   34.8460   29.9680 C   0  0  0  0  0  0  0  0  0  0  0  0
  1  5  2  0
  2 15  1  0
  3  8  1  0
  4  5  1  0
  4 10  1  0
  5 16  1  0
  8  7  1  0
  8  2  1  0
  9 11  1  0
  9  6  1  0
  9 13  1  0
 10  3  1  0
 11 14  1  0
 13 17  1  0
 14 12  1  0
 15  6  1  0
 16  3  1  0
 17 12  1  0
M  END
$$$$

     RDKit          3D

 18 18  0  0  0  0  0  0  0  0999 V2000
   34.2550   28.8010   33.8370 C   0  0  0  0  0  0  0  0  0  0  0  0
   33.9080   35.3100   32.4090 C   0  0  0  0  0  0  0  0  0  0  0  0
   33.5560   29.3890   29.1210 O   0  0  0  0  0  0  0  0  0  0  0  0
   34.3280   31.8590   31.0250 N   0  0  0  0  0  0  0  0  0  0  0  0
   33.9060   30.7300   34.1880 C   0  0  0  0  0  0  0  0  0  0  0  0
   34.7750   33.1390   31.7480 C   0  0  0  0  0  0  0  0  0  0  0  0
   34.6780   30.7590   31.8960 C   0  0  0  0  0  0  0  0  0  0  0  0
   33.0670   36.2580   30.6160 C   0  0  0  0  0  0  0  0  0  0  0  0
   33.8610   31.8740   29.6940 O   0  0  0  0  0  0  0  0  0  0  0  0
   34.7850   29.4180   29.3700 C   0  0  0  0  0  0  0  0  0  0  0  0
   34.8340   28.4700   32.8090 C   0  0  0  0  0  0  0  0  0  0  0  0
   32.7500   35.8380   32.0510 O   0  0  0  0  0  0  0  0  0  0  0  0
   34.0880   34.1270   31.3670 C   0  0  0  0  0  0  0  0  0  0  0  0
   35.2910   29.3330   31.8710 C   0  0  0  0  0  0  0  0  0  0  0  0
   35.3460   28.5720   30.5380 C   0  0  0  0  0  0  0  0  0  0  0  0
   34.5900   31.0050   33.1210 C   0  0  0  0  0  0  0  0  0  0  0  0
   35.5810   30.0950   28.6940 O   0  0  0  0  0  0  0  0  0  0  0  0
   33.6990   29.4980   34.6990 C   0  0  0  0  0  0  0  0  0  0  0  0
  1 18  1  0
  3 10  1  0
  4  6  1  0
  5 18  1  0
  7  4  1  0
  7 16  1  0
  8 12  1  0
  9  4  1  0
 10 15  1  0
 11  1  1  0
 12  2  1  0
 13  6  1  0
 13  2  1  0
 14 15  1  0
 14  7  1  0
 14 11  1  0
 16  5  1  0
 17 10  2  0
M  END
$$$$

     RDKit          3D

  6  5  0  0  0  0  0  0  0  0999 V2000
   40.3930   36.4290   27.5300 C   0  0  0  0  0  0  0  0  0  0  0  0
   42.5330   35.7030   28.5880 C   0  0  0  0  0  0  0  0  0  0  0  0
   43.1290   35.3060   27.5390 O   0  0  0  0  0  0  0  0  0  0  0  0
   43.1650   36.2070   29.5560 O   0  0  0  0  0  0  0  0  0  0  0  0
   41.0240   37.6860   27.6180 O   0  0  0  0  0  0  0  0  0  0  0  0
   41.0270   35.6360   28.6210 C   0  0  0  0  0  0  0  0  0  0  0  0
  1  5  1  0
  1  6  1  0
  2  6  1  0
  2  4  1  0
  3  2  2  0
M  END
$$$$

     RDKit          3D

 19 20  0  0  0  0  0  0  0  0999 V2000
   44.1580   37.1590   30.8700 C   0  0  0  0  0  0  0  0  0  0  0  0
   41.2670   37.0370   28.0840 C   0  0  0  0  0  0  0  0  0  0  0  0
   43.5140   35.4120   29.1070 N   0  0  0  0  0  0  0  0  0  0  0  0
   41.7650   34.0150   30.2130 C   0  0  0  0  0  0  0  0  0  0  0  0
   46.3080   36.1210   31.8770 N   0  0  0  0  0  0  0  0  0  0  0  0
   41.3900   35.5200   28.0550 C   0  0  0  0  0  0  0  0  0  0  0  0
   39.1630   36.2860   24.1110 O   0  0  0  0  0  0  0  0  0  0  0  0
   43.2040   36.8160   29.7330 C   0  0  0  0  0  0  0  0  0  0  0  0
   39.8330   36.4560   25.2880 C   0  0  0  0  0  0  0  0  0  0  0  0
   45.5200   36.4590   30.6830 C   0  0  0  0  0  0  0  0  0  0  0  0
   46.1110   37.0070   32.9320 C   0  0  0  0  0  0  0  0  0  0  0  0
   40.0870   35.3150   26.0400 C   0  0  0  0  0  0  0  0  0  0  0  0
   41.9870   38.9430   29.5130 F   0  0  0  0  0  0  0  0  0  0  0  0
   40.4260   34.7530   27.2070 C   0  0  0  0  0  0  0  0  0  0  0  0
   40.5350   37.9040   27.1690 C   0  0  0  0  0  0  0  0  0  0  0  0
   43.7270   37.9520   31.8100 O   0  0  0  0  0  0  0  0  0  0  0  0
   40.0520   37.9270   25.7400 C   0  0  0  0  0  0  0  0  0  0  0  0
   42.3390   34.8000   29.0100 C   0  0  0  0  0  0  0  0  0  0  0  0
   42.2300   37.7420   29.1300 C   0  0  0  0  0  0  0  0  0  0  0  0
  1 16  1  0
  2 15  1  0
  2 19  1  0
  3  8  1  0
  5 11  1  0
  6 14  1  0
  6  2  1  0
  6 18  1  0
  7  9  1  0
  8  1  1  0
  9 17  1  0
  9 12  2  0
 10  1  1  0
 10  5  1  0
 12 14  1  0
 17 15  1  0
 18  3  1  0
 18  4  1  0
 19 13  1  0
 19  8  1  0
M  END
$$$$

     RDKit          3D

 21 21  0  0  0  0  0  0  0  0999 V2000
   39.8330   34.9100   25.3760 O   0  0  0  0  0  0  0  0  0  0  0  0
   45.7320   37.7360   27.1860 O   0  0  0  0  0  0  0  0  0  0  0  0
   40.7170   35.7560   25.3590 C   0  0  0  0  0  0  0  0  0  0  0  0
   41.4570   35.4330   29.3900 C   0  0  0  0  0  0  0  0  0  0  0  0
   41.9810   35.7140   25.5680 O   0  0  0  0  0  0  0  0  0  0  0  0
   43.9690   36.3290   28.0990 C   0  0  0  0  0  0  0  0  0  0  0  0
   45.3690   37.6770   29.6080 O   0  0  0  0  0  0  0  0  0  0  0  0
   41.4810   36.8610   28.7320 C   0  0  0  0  0  0  0  0  0  0  0  0
   42.7970   34.6790   29.2510 C   0  0  0  0  0  0  0  0  0  0  0  0
   39.2660   39.0620   24.4670 C   0  0  0  0  0  0  0  0  0  0  0  0
   40.1710   37.7660   26.6520 C   0  0  0  0  0  0  0  0  0  0  0  0
   40.2560   34.5400   29.2750 C   0  0  0  0  0  0  0  0  0  0  0  0
   39.0180   39.3830   25.7780 C   0  0  0  0  0  0  0  0  0  0  0  0
   44.6040   37.2690   27.0990 C   0  0  0  0  0  0  0  0  0  0  0  0
   39.7720   37.9000   24.2940 C   0  0  0  0  0  0  0  0  0  0  0  0
   39.5840   38.9110   26.8660 N   0  0  0  0  0  0  0  0  0  0  0  0
   40.2180   37.2030   25.4210 C   0  0  0  0  0  0  0  0  0  0  0  0
   43.7020   37.5760   26.2610 O   0  0  0  0  0  0  0  0  0  0  0  0
   44.4920   36.5540   29.4960 C   0  0  0  0  0  0  0  0  0  0  0  0
   40.8730   37.1050   27.5980 N   0  0  0  0  0  0  0  0  0  0  0  0
   43.5750   34.8760   28.0060 N   0  0  0  0  0  0  0  0  0  0  0  0
  3  1  2  0
  3  5  1  0
  4 12  1  0
  6 19  1  0
  8  4  1  0
  9  4  1  0
 10 13  1  0
 11 16  2  0
 11 20  1  0
 13 16  1  0
 14  2  1  0
 14  6  1  0
 15 10  2  0
 15 17  1  0
 17  3  1  0
 17 11  1  0
 18 14  2  0
 19  7  1  0
 20  8  1  0
 21  6  1  0
 21  9  1  0
M  END
$$$$

     RDKit          3D

 18 18  0  0  0  0  0  0  0  0999 V2000
   33.2830   35.1980   33.8530 C   0  0  0  0  0  0  0  0  0  0  0  0
   34.7980   33.6560   33.4560 C   0  0  0  0  0  0  0  0  0  0  0  0
   32.3070   35.8450   34.8390 C   0  0  0  0  0  0  0  0  0  0  0  0
   35.8390   32.0870   34.9360 C   0  0  0  0  0  0  0  0  0  0  0  0
   36.2220   34.0060   33.1130 O   0  0  0  0  0  0  0  0  0  0  0  0
   30.7260   35.8770   36.8770 C   0  0  0  0  0  0  0  0  0  0  0  0
   33.9010   36.0860   32.9060 C   0  0  0  0  0  0  0  0  0  0  0  0
   34.6240   33.7660   35.8080 O   0  0  0  0  0  0  0  0  0  0  0  0
   35.3320   33.4750   34.8270 C   0  0  0  0  0  0  0  0  0  0  0  0
   31.1020   36.0800   33.8880 O   0  0  0  0  0  0  0  0  0  0  0  0
   34.8770   35.9920   31.9380 C   0  0  0  0  0  0  0  0  0  0  0  0
   32.6690   36.5640   32.0610 C   0  0  0  0  0  0  0  0  0  0  0  0
   31.5000   35.8750   32.5760 C   0  0  0  0  0  0  0  0  0  0  0  0
   31.8590   35.4020   36.2160 C   0  0  0  0  0  0  0  0  0  0  0  0
   30.2650   35.8010   31.5280 C   0  0  0  0  0  0  0  0  0  0  0  0
   28.8290   35.2170   31.7910 C   0  0  0  0  0  0  0  0  0  0  0  0
   33.2130   33.7120   33.7460 C   0  0  0  0  0  0  0  0  0  0  0  0
   31.6890   33.3820   33.8370 O   0  0  0  0  0  0  0  0  0  0  0  0
  1 17  1  0
  1  3  1  0
  2  5  1  0
  2 17  1  0
  2  9  1  0
  3 14  1  0
  7 11  1  0
  7  1  1  0
  9  4  1  0
  9  8  1  0
 10  3  1  0
 12 13  1  0
 12  7  1  0
 13 15  1  0
 13 10  1  0
 14  6  1  0
 15 16  1  0
 17 18  1  0
M  END
$$$$

     RDKit          3D

 33 34  0  0  0  0  0  0  0  0999 V2000
   39.9030   33.2910   28.7690 O   0  0  0  0  0  0  0  0  0  0  0  0
   33.2640   36.0370   36.8580 C   0  0  0  0  0  0  0  0  0  0  0  0
   38.6860   33.0130   34.8860 O   0  0  0  0  0  0  0  0  0  0  0  0
   41.0470   36.2950   27.5410 C   0  0  0  0  0  0  0  0  0  0  0  0
   34.7770   34.7570   35.2060 C   0  0  0  0  0  0  0  0  0  0  0  0
   40.9720   37.5200   28.1580 C   0  0  0  0  0  0  0  0  0  0  0  0
   32.2810   36.6320   37.4780 C   0  0  0  0  0  0  0  0  0  0  0  0
   40.7860   34.1220   28.8940 C   0  0  0  0  0  0  0  0  0  0  0  0
   32.7020   36.1810   35.4630 O   0  0  0  0  0  0  0  0  0  0  0  0
   45.7540   36.5190   28.7760 C   0  0  0  0  0  0  0  0  0  0  0  0
   36.8020   33.8190   33.6980 C   0  0  0  0  0  0  0  0  0  0  0  0
   41.5090   36.0340   26.2140 C   0  0  0  0  0  0  0  0  0  0  0  0
   32.5310   37.4720   32.7230 C   0  0  0  0  0  0  0  0  0  0  0  0
   41.0440   33.7690   30.9210 C   0  0  0  0  0  0  0  0  0  0  0  0
   32.7250   37.1180   34.3080 C   0  0  0  0  0  0  0  0  0  0  0  0
   44.8500   34.5630   27.9300 N   0  0  0  0  0  0  0  0  0  0  0  0
   39.8310   33.6820   31.5410 C   0  0  0  0  0  0  0  0  0  0  0  0
   32.3050   38.3230   35.1560 C   0  0  0  0  0  0  0  0  0  0  0  0
   45.9110   34.9760   28.8130 C   0  0  0  0  0  0  0  0  0  0  0  0
   43.5570   34.6710   28.2460 C   0  0  0  0  0  0  0  0  0  0  0  0
   40.8840   35.0740   27.9650 N   0  0  0  0  0  0  0  0  0  0  0  0
   36.3680   34.5430   35.0690 C   0  0  0  0  0  0  0  0  0  0  0  0
   41.7610   34.1630   29.9750 C   0  0  0  0  0  0  0  0  0  0  0  0
   37.1840   34.9420   35.8520 O   0  0  0  0  0  0  0  0  0  0  0  0
   38.3480   33.2400   33.7370 C   0  0  0  0  0  0  0  0  0  0  0  0
   34.4570   35.0550   36.7070 C   0  0  0  0  0  0  0  0  0  0  0  0
   45.0690   35.6320   26.7650 C   0  0  0  0  0  0  0  0  0  0  0  0
   39.0960   33.3560   32.6650 C   0  0  0  0  0  0  0  0  0  0  0  0
   45.2890   36.9190   27.4500 N   0  0  0  0  0  0  0  0  0  0  0  0
   31.6610   39.0490   34.1070 O   0  0  0  0  0  0  0  0  0  0  0  0
   43.5360   35.7990   30.2770 O   0  0  0  0  0  0  0  0  0  0  0  0
   32.4310   39.0070   32.9280 C   0  0  0  0  0  0  0  0  0  0  0  0
   43.0920   34.9230   29.5630 C   0  0  0  0  0  0  0  0  0  0  0  0
  1  8  2  0
  2  7  2  0
  4 21  1  0
  4  6  2  0
  5 26  1  0
  8 23  1  0
  9  2  1  0
 10 19  1  0
 11 25  1  0
 11 22  1  0
 12  4  1  0
 13 32  1  0
 13 15  1  0
 14 17  1  0
 15 18  1  0
 15  9  1  0
 16 20  1  0
 16 19  1  0
 17 28  2  0
 20 33  1  0
 21  8  1  0
 22  5  1  0
 22 24  2  0
 23 14  1  0
 25  3  1  0
 26  2  1  0
 27 29  1  0
 27 16  1  0
 28 25  2  0
 29 10  1  0
 30 18  1  0
 32 30  1  0
 33 23  1  0
 33 31  2  0
M  END
$$$$

     RDKit          3D

 15 15  0  0  0  0  0  0  0  0999 V2000
   44.7510   35.0190   29.6690 O   0  0  0  0  0  0  0  0  0  0  0  0
   44.0720   36.0620   28.9870 C   0  0  0  0  0  0  0  0  0  0  0  0
   40.5360   37.0360   26.8630 C   0  0  0  0  0  0  0  0  0  0  0  0
   42.6190   36.2560   29.2710 C   0  0  0  0  0  0  0  0  0  0  0  0
   44.4800   35.9040   27.4970 C   0  0  0  0  0  0  0  0  0  0  0  0
   41.6170   35.5560   28.2230 C   0  0  0  0  0  0  0  0  0  0  0  0
   43.1950   36.6380   26.5580 S   0  0  0  0  0  0  0  0  0  0  0  0
   39.9200   37.8370   25.8030 C   0  0  0  0  0  0  0  0  0  0  0  0
   41.8940   35.5070   27.0500 C   0  0  0  0  0  0  0  0  0  0  0  0
   42.4570   37.7190   29.9370 N   0  0  0  0  0  0  0  0  0  0  0  0
   40.6120   35.7350   25.9970 C   0  0  0  0  0  0  0  0  0  0  0  0
   41.3830   35.4030   24.8800 O   0  0  0  0  0  0  0  0  0  0  0  0
   44.8800   34.5680   27.0850 C   0  0  0  0  0  0  0  0  0  0  0  0
   39.6140   35.0460   26.0950 O   0  0  0  0  0  0  0  0  0  0  0  0
   40.9000   37.7890   27.8580 O   0  0  0  0  0  0  0  0  0  0  0  0
  2  4  1  0
  2  1  1  0
  3  8  1  0
  3 15  1  0
  4 10  1  0
  5 13  1  0
  5  2  1  0
  6  4  1  0
  7  9  1  0
  7  5  1  0
  9 11  1  0
  9  6  1  0
 11 14  1  0
 11  3  1  0
 12 11  1  0
M  END
$$$$

     RDKit          3D

 15 15  0  0  0  0  0  0  0  0999 V2000
   41.4420   36.5620   29.5870 O   0  0  0  0  0  0  0  0  0  0  0  0
   41.5220   34.3870   29.0900 C   0  0  0  0  0  0  0  0  0  0  0  0
   41.2180   37.9400   27.3720 O   0  0  0  0  0  0  0  0  0  0  0  0
   40.2660   34.4750   26.7720 O   0  0  0  0  0  0  0  0  0  0  0  0
   42.4600   37.3670   27.5960 C   0  0  0  0  0  0  0  0  0  0  0  0
   43.6130   37.8090   26.7580 C   0  0  0  0  0  0  0  0  0  0  0  0
   40.6770   35.7130   27.0750 C   0  0  0  0  0  0  0  0  0  0  0  0
   39.1350   35.4880   24.2260 C   0  0  0  0  0  0  0  0  0  0  0  0
   42.9140   34.2140   28.9720 O   0  0  0  0  0  0  0  0  0  0  0  0
   41.0860   35.6910   28.5920 C   0  0  0  0  0  0  0  0  0  0  0  0
   40.0630   36.4610   24.5640 C   0  0  0  0  0  0  0  0  0  0  0  0
   39.9920   36.7250   26.0900 C   0  0  0  0  0  0  0  0  0  0  0  0
   42.1260   36.0770   27.4730 O   0  0  0  0  0  0  0  0  0  0  0  0
   40.6360   38.1810   26.2190 C   0  0  0  0  0  0  0  0  0  0  0  0
   39.8740   38.9710   25.5230 O   0  0  0  0  0  0  0  0  0  0  0  0
  3  5  1  0
  5  6  1  0
  7  4  1  0
  7 13  1  0
  7 10  1  0
  8 11  1  0
  9  2  1  0
 10  2  1  0
 10  1  1  0
 12 11  1  0
 12 14  1  0
 12  7  1  0
 13  5  1  0
 14  3  1  0
 15 14  2  0
M  END
$$$$

     RDKit          3D

 15 15  0  0  0  0  0  0  0  0999 V2000
   45.7110   38.8330   27.1030 C   0  0  0  0  0  0  0  0  0  0  0  0
   40.4940   34.4300   28.9810 O   0  0  0  0  0  0  0  0  0  0  0  0
   43.0270   35.3750   29.2240 O   0  0  0  0  0  0  0  0  0  0  0  0
   43.7950   36.1710   26.0490 C   0  0  0  0  0  0  0  0  0  0  0  0
   42.1630   37.6590   28.5980 C   0  0  0  0  0  0  0  0  0  0  0  0
   44.8700   38.0540   26.7280 C   0  0  0  0  0  0  0  0  0  0  0  0
   40.8510   35.5630   28.0300 C   0  0  0  0  0  0  0  0  0  0  0  0
   41.2720   35.2830   26.5580 C   0  0  0  0  0  0  0  0  0  0  0  0
   40.3160   34.9440   25.9660 O   0  0  0  0  0  0  0  0  0  0  0  0
   41.9530   36.3060   29.0310 C   0  0  0  0  0  0  0  0  0  0  0  0
   42.4120   38.0720   27.0520 C   0  0  0  0  0  0  0  0  0  0  0  0
   43.7940   37.5150   26.7470 C   0  0  0  0  0  0  0  0  0  0  0  0
   44.9890   35.5230   26.4470 O   0  0  0  0  0  0  0  0  0  0  0  0
   42.3360   38.5990   29.3380 O   0  0  0  0  0  0  0  0  0  0  0  0
   42.7300   35.0500   26.0640 C   0  0  0  0  0  0  0  0  0  0  0  0
  4 15  1  0
  4 13  1  0
  4 12  1  0
  5 10  1  0
  5 14  2  0
  6  1  3  0
  7  2  1  0
  7 10  1  0
  8  7  1  0
  9  8  2  0
 10  3  1  0
 11  5  1  0
 12  6  1  0
 12 11  1  0
 15  8  1  0
M  END
$$$$
