
     RDKit          3D

 20 24  0  0  0  0  0  0  0  0999 V2000
   41.5870   37.4280   33.0470 N   0  0  0  0  0  0  0  0  0  0  0  0
   41.0310   37.9660   28.3510 O   0  0  0  0  0  0  0  0  0  0  0  0
   41.2820   38.1380   30.8170 C   0  0  0  0  0  0  0  0  0  0  0  0
   41.2500   36.2340   32.3200 C   0  0  0  0  0  0  0  0  0  0  0  0
   38.8970   39.9710   27.3140 S   0  0  0  0  0  0  0  0  0  0  0  0
   43.2980   41.2680   30.8710 C   0  0  0  0  0  0  0  0  0  0  0  0
   41.4180   36.7250   31.0260 N   0  0  0  0  0  0  0  0  0  0  0  0
   39.8620   41.8950   28.8470 C   0  0  0  0  0  0  0  0  0  0  0  0
   38.3480   42.2020   28.6710 C   0  0  0  0  0  0  0  0  0  0  0  0
   43.1400   38.9880   32.3500 N   0  0  0  0  0  0  0  0  0  0  0  0
   41.7360   41.1370   30.4530 C   0  0  0  0  0  0  0  0  0  0  0  0
   37.7280   41.2870   27.6350 C   0  0  0  0  0  0  0  0  0  0  0  0
   41.1330   42.6140   29.6570 S   0  0  0  0  0  0  0  0  0  0  0  0
   44.0300   39.9080   31.3730 C   0  0  0  0  0  0  0  0  0  0  0  0
   41.5220   40.2180   29.1810 C   0  0  0  0  0  0  0  0  0  0  0  0
   41.4370   34.7880   32.4420 C   0  0  0  0  0  0  0  0  0  0  0  0
   40.1060   35.3650   32.8150 C   0  0  0  0  0  0  0  0  0  0  0  0
   41.7510   38.6090   32.2240 C   0  0  0  0  0  0  0  0  0  0  0  0
   41.7970   38.7030   29.4250 C   0  0  0  0  0  0  0  0  0  0  0  0
   40.1320   40.4880   28.5400 C   0  0  0  0  0  0  0  0  0  0  0  0
  2 19  1  0
  3  7  1  0
  3 18  1  0
  4 16  1  0
  4 17  1  0
  4  1  1  0
  5 12  1  0
  5 20  1  0
  6 14  1  0
  7  4  1  0
  8  9  1  0
  8 13  1  0
 11  6  1  0
 12  9  1  0
 13 11  1  0
 14 10  1  0
 15 19  1  0
 15 11  1  0
 16 17  1  0
 18 10  1  0
 18  1  1  0
 19  3  1  0
 20  8  1  0
 20 15  1  0
M  END
$$$$

     RDKit          3D

 14 14  0  0  0  0  0  0  0  0999 V2000
   45.6780   37.1260   33.6760 C   0  0  0  0  0  0  0  0  0  0  0  0
   46.6740   37.3580   32.6310 N   0  0  0  0  0  0  0  0  0  0  0  0
   41.1840   41.1110   30.1370 C   0  0  0  0  0  0  0  0  0  0  0  0
   46.1420   36.2930   34.5830 N   0  0  0  0  0  0  0  0  0  0  0  0
   41.9400   39.0570   31.1510 N   0  0  0  0  0  0  0  0  0  0  0  0
   43.3880   37.2100   31.2860 N   0  0  0  0  0  0  0  0  0  0  0  0
   39.9790   42.0480   29.9020 C   0  0  0  0  0  0  0  0  0  0  0  0
   44.4150   37.9500   33.5040 C   0  0  0  0  0  0  0  0  0  0  0  0
   44.2030   38.2320   31.9970 C   0  0  0  0  0  0  0  0  0  0  0  0
   41.7310   37.5070   29.5190 O   0  0  0  0  0  0  0  0  0  0  0  0
   47.3710   35.7460   34.2270 C   0  0  0  0  0  0  0  0  0  0  0  0
   42.3070   37.9470   30.5210 C   0  0  0  0  0  0  0  0  0  0  0  0
   47.8520   36.3590   32.8150 S   0  0  0  0  0  0  0  0  0  0  0  0
   40.7510   39.8940   30.9610 C   0  0  0  0  0  0  0  0  0  0  0  0
  1  4  1  0
  2 13  1  0
  2  1  2  0
  3 14  1  0
  6  9  1  0
  7  3  1  0
  8  1  1  0
  9  8  1  0
 10 12  2  0
 11  4  2  0
 12  5  1  0
 12  6  1  0
 13 11  1  0
 14  5  1  0
M  END
$$$$

     RDKit          3D

 13 12  0  0  0  0  0  0  0  0999 V2000
   42.5300   39.5310   30.5610 C   0  0  0  0  0  0  0  0  0  0  0  0
   39.6800   42.0390   29.3390 C   0  0  0  0  0  0  0  0  0  0  0  0
   43.9390   39.3580   30.1940 O   0  0  0  0  0  0  0  0  0  0  0  0
   41.9990   38.6220   32.7940 O   0  0  0  0  0  0  0  0  0  0  0  0
   44.8610   40.0950   30.9900 C   0  0  0  0  0  0  0  0  0  0  0  0
   42.4830   41.7630   29.5680 O   0  0  0  0  0  0  0  0  0  0  0  0
   41.3030   36.2100   31.7900 C   0  0  0  0  0  0  0  0  0  0  0  0
   41.8790   40.7240   29.7050 C   0  0  0  0  0  0  0  0  0  0  0  0
   41.4880   35.2910   32.3980 O   0  0  0  0  0  0  0  0  0  0  0  0
   41.3950   37.9100   28.9770 O   0  0  0  0  0  0  0  0  0  0  0  0
   41.8270   38.1540   30.4110 C   0  0  0  0  0  0  0  0  0  0  0  0
   40.3640   40.6700   29.4590 C   0  0  0  0  0  0  0  0  0  0  0  0
   42.0900   37.5320   31.8550 C   0  0  0  0  0  0  0  0  0  0  0  0
  1  8  1  0
  2 12  1  0
  3  1  1  0
  3  5  1  0
  6  8  2  0
  7 13  1  0
  7  9  2  0
 11 10  1  0
 11  1  1  0
 11 13  1  0
 12  8  1  0
 13  4  1  0
M  END
$$$$

     RDKit          3D

  4  3  0  0  0  0  0  0  0  0999 V2000
   41.5850   38.9280   29.3520 C   0  0  0  0  0  0  0  0  0  0  0  0
   41.8970   39.4440   30.7830 O   0  0  0  0  0  0  0  0  0  0  0  0
   41.1630   37.7970   29.6290 O   0  0  0  0  0  0  0  0  0  0  0  0
   41.5290   38.7160   31.5560 N   0  0  0  0  0  0  0  0  0  0  0  0
  1  3  1  0
  1  2  1  0
  2  4  1  0
M  END
$$$$

     RDKit          3D

 18 20  0  0  0  0  0  0  0  0999 V2000
   41.4530   38.9290   28.1330 C   0  0  0  0  0  0  0  0  0  0  0  0
   39.7480   43.5020   29.2710 C   0  0  0  0  0  0  0  0  0  0  0  0
   40.5910   38.1300   28.2560 O   0  0  0  0  0  0  0  0  0  0  0  0
   41.9670   39.3620   31.7100 N   0  0  0  0  0  0  0  0  0  0  0  0
   41.2760   37.2620   31.8280 C   0  0  0  0  0  0  0  0  0  0  0  0
   42.0900   39.2710   26.9980 O   0  0  0  0  0  0  0  0  0  0  0  0
   39.1030   42.3350   29.6800 C   0  0  0  0  0  0  0  0  0  0  0  0
   41.7880   39.0320   30.4170 N   0  0  0  0  0  0  0  0  0  0  0  0
   41.9240   39.8050   29.2470 C   0  0  0  0  0  0  0  0  0  0  0  0
   41.1120   43.4590   28.9290 N   0  0  0  0  0  0  0  0  0  0  0  0
   42.2260   35.3410   33.0410 N   0  0  0  0  0  0  0  0  0  0  0  0
   41.8930   42.2290   29.0360 C   0  0  0  0  0  0  0  0  0  0  0  0
   41.1100   41.0370   29.3560 C   0  0  0  0  0  0  0  0  0  0  0  0
   41.3250   37.5890   30.3980 N   0  0  0  0  0  0  0  0  0  0  0  0
   41.5760   38.2810   32.5090 N   0  0  0  0  0  0  0  0  0  0  0  0
   41.4270   34.5430   32.1610 C   0  0  0  0  0  0  0  0  0  0  0  0
   39.7600   41.0870   29.6710 C   0  0  0  0  0  0  0  0  0  0  0  0
   41.0090   35.9400   32.4390 C   0  0  0  0  0  0  0  0  0  0  0  0
  1  3  1  0
  2  7  1  0
  4 15  2  0
  5 15  1  0
  6  1  2  0
  8  4  1  0
  9  1  1  0
  9 13  1  0
  9  8  1  0
 10 12  1  0
 10  2  2  0
 12 13  2  0
 13 17  1  0
 14  8  1  0
 14  5  2  0
 16 18  1  0
 16 11  1  0
 17  7  2  0
 18  5  1  0
 18 11  1  0
M  END
$$$$

     RDKit          3D

 12 12  0  0  0  0  0  0  0  0999 V2000
   41.2800   38.0700   29.0020 O   0  0  0  0  0  0  0  0  0  0  0  0
   41.0430   40.6160   30.0200 O   0  0  0  0  0  0  0  0  0  0  0  0
   43.9140   39.1110   27.8640 O   0  0  0  0  0  0  0  0  0  0  0  0
   42.9540   40.2390   31.2200 O   0  0  0  0  0  0  0  0  0  0  0  0
   43.2980   37.8520   32.1010 O   0  0  0  0  0  0  0  0  0  0  0  0
   43.8280   39.1870   31.6690 C   0  0  0  0  0  0  0  0  0  0  0  0
   41.7370   39.6490   30.7740 C   0  0  0  0  0  0  0  0  0  0  0  0
   43.5140   38.9340   29.2080 C   0  0  0  0  0  0  0  0  0  0  0  0
   42.1910   38.7360   29.5950 C   0  0  0  0  0  0  0  0  0  0  0  0
   44.5440   38.9930   30.2790 C   0  0  0  0  0  0  0  0  0  0  0  0
   45.7490   39.3150   30.3850 O   0  0  0  0  0  0  0  0  0  0  0  0
   44.5510   39.5750   32.8090 C   0  0  0  0  0  0  0  0  0  0  0  0
  1  9  2  0
  4  6  1  0
  6  5  1  0
  6 12  1  0
  7  2  1  0
  7  4  1  0
  8  3  1  0
  8  9  1  0
  8 10  1  0
  9  7  1  0
 10 11  2  0
 10  6  1  0
M  END
$$$$

     RDKit          3D

 22 24  0  0  0  0  0  0  0  0999 V2000
   41.5360   37.3240   32.6490 C   0  0  0  0  0  0  0  0  0  0  0  0
   37.7710   41.1140   26.8020 O   0  0  0  0  0  0  0  0  0  0  0  0
   43.2460   38.1450   28.2700 O   0  0  0  0  0  0  0  0  0  0  0  0
   39.3610   41.1310   28.9700 C   0  0  0  0  0  0  0  0  0  0  0  0
   44.0630   36.9420   32.3470 C   0  0  0  0  0  0  0  0  0  0  0  0
   39.9410   40.0730   26.5860 N   0  0  0  0  0  0  0  0  0  0  0  0
   41.5190   38.2190   31.5750 C   0  0  0  0  0  0  0  0  0  0  0  0
   39.7010   39.9960   25.1300 C   0  0  0  0  0  0  0  0  0  0  0  0
   43.9900   38.0380   31.2450 C   0  0  0  0  0  0  0  0  0  0  0  0
   41.1700   39.6370   27.2270 C   0  0  0  0  0  0  0  0  0  0  0  0
   42.9740   37.0780   33.3810 C   0  0  0  0  0  0  0  0  0  0  0  0
   39.6530   42.6220   29.3540 C   0  0  0  0  0  0  0  0  0  0  0  0
   43.2180   37.9160   34.5140 O   0  0  0  0  0  0  0  0  0  0  0  0
   42.4630   38.5750   29.2380 C   0  0  0  0  0  0  0  0  0  0  0  0
   42.5860   38.2500   30.7150 C   0  0  0  0  0  0  0  0  0  0  0  0
   42.2070   39.3360   26.2940 O   0  0  0  0  0  0  0  0  0  0  0  0
   38.2340   42.0010   29.5470 C   0  0  0  0  0  0  0  0  0  0  0  0
   38.9110   40.8130   27.4160 C   0  0  0  0  0  0  0  0  0  0  0  0
   41.0960   35.9990   32.3240 O   0  0  0  0  0  0  0  0  0  0  0  0
   45.1400   37.9370   30.2390 C   0  0  0  0  0  0  0  0  0  0  0  0
   41.3070   39.4730   28.7020 C   0  0  0  0  0  0  0  0  0  0  0  0
   40.3680   40.2110   29.6030 C   0  0  0  0  0  0  0  0  0  0  0  0
  1 19  1  0
  1 11  1  0
  2 18  2  0
  3 14  1  0
  4 12  1  0
  4 17  1  0
  4 22  1  0
  5 11  1  0
  6 10  1  0
  6 18  1  0
  7  1  1  0
  8  6  1  0
  9 20  1  0
  9  5  1  0
 10 21  1  0
 11 13  1  0
 12 17  1  0
 15 14  1  0
 15  9  1  0
 15  7  1  0
 16 10  2  0
 18  4  1  0
 21 14  2  3
 21 22  1  0
M  END
$$$$

     RDKit          3D

  8  7  0  0  0  0  0  0  0  0999 V2000
   41.3210   36.5250   32.4140 C   0  0  0  0  0  0  0  0  0  0  0  0
   45.0160   39.0910   32.7150 O   0  0  0  0  0  0  0  0  0  0  0  0
   42.4130   37.7720   32.6570 C   0  0  0  0  0  0  0  0  0  0  0  0
   43.8760   38.6290   31.9120 S   0  0  0  0  0  0  0  0  0  0  0  0
   41.7170   35.1520   32.1170 N   0  0  0  0  0  0  0  0  0  0  0  0
   41.5760   38.9920   32.9070 N   0  0  0  0  0  0  0  0  0  0  0  0
   43.4950   40.0620   31.5480 O   0  0  0  0  0  0  0  0  0  0  0  0
   44.4230   37.6830   30.8600 O   0  0  0  0  0  0  0  0  0  0  0  0
  1  3  1  0
  3  6  1  0
  4  3  1  0
  4  2  1  0
  5  1  1  0
  7  4  1  0
  8  4  1  0
M  END
$$$$

     RDKit          3D

 14 14  0  0  0  0  0  0  0  0999 V2000
   43.8710   37.3270   32.6620 O   0  0  0  0  0  0  0  0  0  0  0  0
   41.3450   37.2730   31.2620 N   0  0  0  0  0  0  0  0  0  0  0  0
   41.7500   36.3130   32.1270 C   0  0  0  0  0  0  0  0  0  0  0  0
   40.8060   39.8150   28.0450 C   0  0  0  0  0  0  0  0  0  0  0  0
   40.1720   40.8310   27.2890 C   0  0  0  0  0  0  0  0  0  0  0  0
   41.0480   40.0210   29.4540 C   0  0  0  0  0  0  0  0  0  0  0  0
   40.4350   41.1170   30.1410 C   0  0  0  0  0  0  0  0  0  0  0  0
   43.1780   39.1070   29.5170 O   0  0  0  0  0  0  0  0  0  0  0  0
   40.8570   35.2110   32.3480 C   0  0  0  0  0  0  0  0  0  0  0  0
   42.0570   39.1840   30.1100 C   0  0  0  0  0  0  0  0  0  0  0  0
   41.9500   38.5090   31.3510 C   0  0  0  0  0  0  0  0  0  0  0  0
   39.9120   42.0850   27.8930 C   0  0  0  0  0  0  0  0  0  0  0  0
   43.1130   36.1030   32.7340 C   0  0  0  0  0  0  0  0  0  0  0  0
   39.9980   42.2110   29.3810 C   0  0  0  0  0  0  0  0  0  0  0  0
  1 13  1  0
  2 11  1  0
  2  3  1  0
  3  9  1  0
  3 13  1  0
  4  6  1  0
  5 12  1  0
  5  4  2  0
  6 10  1  0
  6  7  2  0
  8 10  2  0
 10 11  1  0
 12 14  2  0
 14  7  1  0
M  END
$$$$

     RDKit          3D

 15 15  0  0  0  0  0  0  0  0999 V2000
   41.6280   37.9450   29.4810 O   0  0  0  0  0  0  0  0  0  0  0  0
   40.7930   40.2440   29.3900 C   0  0  0  0  0  0  0  0  0  0  0  0
   40.6110   38.7830   28.9660 C   0  0  0  0  0  0  0  0  0  0  0  0
   41.2780   40.7100   30.7410 C   0  0  0  0  0  0  0  0  0  0  0  0
   42.1800   37.1140   34.1090 O   0  0  0  0  0  0  0  0  0  0  0  0
   42.4360   36.9440   31.7610 N   0  0  0  0  0  0  0  0  0  0  0  0
   40.2140   36.2570   33.0920 O   0  0  0  0  0  0  0  0  0  0  0  0
   41.6400   36.3860   33.0440 P   0  0  0  0  0  0  0  0  0  0  0  0
   40.6920   38.4060   31.8700 C   0  0  0  0  0  0  0  0  0  0  0  0
   41.6350   39.4590   31.5620 O   0  0  0  0  0  0  0  0  0  0  0  0
   42.0790   35.0460   32.9720 C   0  0  0  0  0  0  0  0  0  0  0  0
   41.2240   37.6080   30.8850 C   0  0  0  0  0  0  0  0  0  0  0  0
   39.6180   40.9100   29.0510 O   0  0  0  0  0  0  0  0  0  0  0  0
   42.7360   41.3660   30.7340 C   0  0  0  0  0  0  0  0  0  0  0  0
   43.2510   41.0370   32.0090 O   0  0  0  0  0  0  0  0  0  0  0  0
  1 12  1  0
  2 13  1  0
  2  4  1  0
  3  2  1  0
  3  1  1  0
  4 14  1  0
  4 10  1  0
  6  8  1  0
  8 11  1  0
  8  7  2  0
  8  5  1  0
 10  9  1  0
 12  6  1  0
 12  9  1  0
 14 15  1  0
M  END
$$$$

     RDKit          3D

 18 18  0  0  0  0  0  0  0  0999 V2000
   40.4760   41.0510   28.5740 N   0  0  0  0  0  0  0  0  0  0  0  0
   40.4830   43.5510   29.9640 C   0  0  0  0  0  0  0  0  0  0  0  0
   42.2360   38.8140   31.2170 C   0  0  0  0  0  0  0  0  0  0  0  0
   41.2180   37.0640   32.6400 C   0  0  0  0  0  0  0  0  0  0  0  0
   41.2470   38.0210   31.6450 O   0  0  0  0  0  0  0  0  0  0  0  0
   41.4710   42.3010   26.4850 O   0  0  0  0  0  0  0  0  0  0  0  0
   42.4090   36.0980   32.7060 C   0  0  0  0  0  0  0  0  0  0  0  0
   42.1090   40.6650   30.5900 S   0  0  0  0  0  0  0  0  0  0  0  0
   42.1510   37.8090   28.9880 C   0  0  0  0  0  0  0  0  0  0  0  0
   41.2460   41.0790   27.2140 C   0  0  0  0  0  0  0  0  0  0  0  0
   42.2360   35.3500   31.4710 N   0  0  0  0  0  0  0  0  0  0  0  0
   40.2250   42.4440   29.1680 C   0  0  0  0  0  0  0  0  0  0  0  0
   38.0230   43.5820   28.8820 C   0  0  0  0  0  0  0  0  0  0  0  0
   41.0520   38.5970   29.0710 C   0  0  0  0  0  0  0  0  0  0  0  0
   40.8380   40.0480   29.6200 C   0  0  0  0  0  0  0  0  0  0  0  0
   40.2110   36.8530   33.2730 O   0  0  0  0  0  0  0  0  0  0  0  0
   39.5250   43.7200   28.7510 C   0  0  0  0  0  0  0  0  0  0  0  0
   44.0190   38.1870   30.6050 S   0  0  0  0  0  0  0  0  0  0  0  0
  1 15  1  0
  3  5  1  0
  4  7  1  0
  4 16  2  0
  5  4  1  0
  6 10  1  0
  8  3  1  0
  9 14  2  0
 10  1  1  0
 11  7  1  0
 12  1  1  0
 12  2  1  0
 15 14  1  0
 15  8  1  0
 17 13  1  0
 17 12  1  0
 17  2  1  0
 18  3  2  0
M  END
$$$$

     RDKit          3D

 15 14  0  0  0  0  0  0  0  0999 V2000
   43.9330   40.9740   28.8350 O   0  0  0  0  0  0  0  0  0  0  0  0
   41.9190   40.3970   29.5410 C   0  0  0  0  0  0  0  0  0  0  0  0
   45.1050   39.1320   31.2120 N   0  0  0  0  0  0  0  0  0  0  0  0
   40.7720   40.5000   28.6910 O   0  0  0  0  0  0  0  0  0  0  0  0
   44.7620   38.0370   30.2400 C   0  0  0  0  0  0  0  0  0  0  0  0
   40.8860   42.1430   30.3590 O   0  0  0  0  0  0  0  0  0  0  0  0
   41.9830   35.1050   32.4800 N   0  0  0  0  0  0  0  0  0  0  0  0
   43.8590   38.5430   29.0500 C   0  0  0  0  0  0  0  0  0  0  0  0
   43.4300   39.9500   29.5100 C   0  0  0  0  0  0  0  0  0  0  0  0
   40.9930   37.7640   29.4130 O   0  0  0  0  0  0  0  0  0  0  0  0
   42.0790   41.7620   30.3020 C   0  0  0  0  0  0  0  0  0  0  0  0
   41.2630   38.1600   30.5710 C   0  0  0  0  0  0  0  0  0  0  0  0
   41.7960   37.7600   32.2220 S   0  0  0  0  0  0  0  0  0  0  0  0
   40.9630   36.1160   32.3410 C   0  0  0  0  0  0  0  0  0  0  0  0
   41.3610   39.5910   30.5900 N   0  0  0  0  0  0  0  0  0  0  0  0
  2  4  1  0
  2 11  1  0
  2 15  1  0
  5  3  1  0
  8  9  1  0
  8  5  1  0
  9  1  1  0
  9  2  1  0
 10 12  2  0
 11  6  1  0
 12 15  1  0
 12 13  1  0
 13 14  1  0
 14  7  1  0
M  END
$$$$

     RDKit          3D

 12 12  0  0  0  0  0  0  0  0999 V2000
   41.8810   37.8030   30.4340 C   0  0  0  0  0  0  0  0  0  0  0  0
   41.4880   38.9260   32.5860 C   0  0  0  0  0  0  0  0  0  0  0  0
   41.0860   38.1790   31.4370 C   0  0  0  0  0  0  0  0  0  0  0  0
   43.8790   38.4330   32.9230 C   0  0  0  0  0  0  0  0  0  0  0  0
   44.1670   38.0520   31.1850 C   0  0  0  0  0  0  0  0  0  0  0  0
   44.6160   38.6960   34.3440 C   0  0  0  0  0  0  0  0  0  0  0  0
   43.0840   38.4470   30.2110 C   0  0  0  0  0  0  0  0  0  0  0  0
   44.7810   39.9890   34.5700 N   0  0  0  0  0  0  0  0  0  0  0  0
   45.2720   39.7870   29.9220 O   0  0  0  0  0  0  0  0  0  0  0  0
   45.0360   37.7120   34.8590 O   0  0  0  0  0  0  0  0  0  0  0  0
   42.7460   39.4230   32.9480 C   0  0  0  0  0  0  0  0  0  0  0  0
   45.2540   38.9820   30.6610 C   0  0  0  0  0  0  0  0  0  0  0  0
  1  3  1  0
  2 11  1  0
  3  2  2  0
  4 11  1  0
  4  6  1  0
  5 12  1  0
  5  4  1  0
  6  8  1  0
  6 10  2  0
  7  1  1  0
  7  5  1  0
  9 12  2  0
M  END
$$$$

     RDKit          3D

  4  3  0  0  0  0  0  0  0  0999 V2000
   41.5170   39.4650   31.8640 C   0  0  0  0  0  0  0  0  0  0  0  0
   43.7840   38.3950   32.0120 N   0  0  0  0  0  0  0  0  0  0  0  0
   42.4140   38.2780   31.8710 C   0  0  0  0  0  0  0  0  0  0  0  0
   41.8350   37.1270   31.7370 N   0  0  0  0  0  0  0  0  0  0  0  0
  1  3  1  0
  3  2  1  0
  4  3  2  0
M  END
$$$$

     RDKit          3D

 14 14  0  0  0  0  0  0  0  0999 V2000
   41.7060   40.1430   31.5590 C   0  0  0  0  0  0  0  0  0  0  0  0
   41.3820   38.1990   28.5650 O   0  0  0  0  0  0  0  0  0  0  0  0
   41.6640   40.9720   29.2510 C   0  0  0  0  0  0  0  0  0  0  0  0
   38.5550   42.2990   28.2570 C   0  0  0  0  0  0  0  0  0  0  0  0
   43.5470   37.3600   33.9240 S   0  0  0  0  0  0  0  0  0  0  0  0
   41.9590   38.5400   29.6160 C   0  0  0  0  0  0  0  0  0  0  0  0
   40.1470   40.8520   29.3040 C   0  0  0  0  0  0  0  0  0  0  0  0
   42.1030   38.9790   32.4580 C   0  0  0  0  0  0  0  0  0  0  0  0
   39.5800   42.2250   29.3710 C   0  0  0  0  0  0  0  0  0  0  0  0
   42.2480   39.9220   30.1620 C   0  0  0  0  0  0  0  0  0  0  0  0
   42.4110   37.5320   30.2740 N   0  0  0  0  0  0  0  0  0  0  0  0
   42.8240   37.9170   31.6190 C   0  0  0  0  0  0  0  0  0  0  0  0
   43.6910   40.0880   30.2070 O   0  0  0  0  0  0  0  0  0  0  0  0
   42.9020   36.5890   32.4090 C   0  0  0  0  0  0  0  0  0  0  0  0
  1  8  1  0
  2  6  2  0
  3  7  1  0
  3 10  1  0
  4  9  1  0
  6 10  1  0
  6 11  1  0
  7  9  1  0
 10 13  1  0
 10  1  1  0
 11 12  1  0
 12 14  1  0
 12  8  1  0
 14  5  1  0
M  END
$$$$

     RDKit          3D

  9  9  0  0  0  0  0  0  0  0999 V2000
   43.6950   39.1890   31.9880 C   0  0  0  0  0  0  0  0  0  0  0  0
   41.2460   39.6480   30.2730 C   0  0  0  0  0  0  0  0  0  0  0  0
   41.5160   40.7570   29.3330 O   0  0  0  0  0  0  0  0  0  0  0  0
   43.7730   39.1990   30.5420 C   0  0  0  0  0  0  0  0  0  0  0  0
   45.2460   37.3140   32.3980 O   0  0  0  0  0  0  0  0  0  0  0  0
   43.3160   39.4650   33.1920 O   0  0  0  0  0  0  0  0  0  0  0  0
   44.4100   37.9420   31.4580 C   0  0  0  0  0  0  0  0  0  0  0  0
   42.6110   38.4310   30.1650 C   0  0  0  0  0  0  0  0  0  0  0  0
   42.0170   37.2870   29.3670 O   0  0  0  0  0  0  0  0  0  0  0  0
  1  6  1  0
  3  2  1  0
  4  8  1  0
  4  7  1  0
  4  1  1  0
  7  1  1  0
  7  5  1  0
  8  9  1  0
  8  2  1  0
M  END
$$$$

     RDKit          3D

 16 15  0  0  0  0  0  0  0  0999 V2000
   41.3890   36.9910   32.4230 C   0  0  0  0  0  0  0  0  0  0  0  0
   45.1740   38.1760   32.3820 C   0  0  0  0  0  0  0  0  0  0  0  0
   41.8870   37.5970   31.2380 N   0  0  0  0  0  0  0  0  0  0  0  0
   41.4050   39.9580   30.4460 C   0  0  0  0  0  0  0  0  0  0  0  0
   45.2740   37.1130   31.4920 C   0  0  0  0  0  0  0  0  0  0  0  0
   42.8610   40.4820   30.3120 C   0  0  0  0  0  0  0  0  0  0  0  0
   42.9850   41.8750   31.0240 C   0  0  0  0  0  0  0  0  0  0  0  0
   41.4370   37.9100   29.0080 O   0  0  0  0  0  0  0  0  0  0  0  0
   40.4400   40.8340   29.6450 N   0  0  0  0  0  0  0  0  0  0  0  0
   46.4090   38.3790   33.2470 C   0  0  0  0  0  0  0  0  0  0  0  0
   44.0960   40.6590   33.7840 O   0  0  0  0  0  0  0  0  0  0  0  0
   43.6130   39.4560   31.0110 O   0  0  0  0  0  0  0  0  0  0  0  0
   41.9810   35.6390   32.6370 C   0  0  0  0  0  0  0  0  0  0  0  0
   43.4580   39.4240   33.6530 C   0  0  0  0  0  0  0  0  0  0  0  0
   43.7460   38.7370   32.3100 C   0  0  0  0  0  0  0  0  0  0  0  0
   41.5780   38.4370   30.2200 C   0  0  0  0  0  0  0  0  0  0  0  0
  1 13  1  0
  2 10  1  0
  3  1  1  0
  4  9  1  0
  5  2  1  0
  6  4  1  0
  6 12  1  0
  6  7  1  0
  8 16  2  0
 12 15  1  0
 14 11  1  0
 15  2  1  0
 15 14  1  0
 16  4  1  0
 16  3  1  0
M  END
$$$$

     RDKit          3D

 14 15  0  0  0  0  0  0  0  0999 V2000
   42.8790   40.2880   30.5940 C   0  0  0  0  0  0  0  0  0  0  0  0
   41.0960   38.0470   31.7110 C   0  0  0  0  0  0  0  0  0  0  0  0
   41.7100   37.7360   34.0160 O   0  0  0  0  0  0  0  0  0  0  0  0
   43.8600   41.4420   28.8590 C   0  0  0  0  0  0  0  0  0  0  0  0
   41.3060   37.0340   32.8270 C   0  0  0  0  0  0  0  0  0  0  0  0
   41.2740   38.3710   28.7660 O   0  0  0  0  0  0  0  0  0  0  0  0
   42.4350   36.0110   32.6490 C   0  0  0  0  0  0  0  0  0  0  0  0
   43.6510   38.3590   31.6390 S   0  0  0  0  0  0  0  0  0  0  0  0
   42.1490   39.1630   29.7140 C   0  0  0  0  0  0  0  0  0  0  0  0
   43.9770   42.3260   31.0830 O   0  0  0  0  0  0  0  0  0  0  0  0
   42.9990   41.6930   30.0530 C   0  0  0  0  0  0  0  0  0  0  0  0
   42.3210   38.0410   30.6570 C   0  0  0  0  0  0  0  0  0  0  0  0
   43.7810   36.5900   32.1750 C   0  0  0  0  0  0  0  0  0  0  0  0
   44.1050   39.7930   30.8880 O   0  0  0  0  0  0  0  0  0  0  0  0
  1 11  1  0
  1 14  1  0
  2  5  1  0
  5  3  1  0
  7  5  1  0
  8 13  1  0
  9  6  1  0
  9  1  1  0
  9 12  1  0
 11  4  1  0
 11 10  1  0
 12  8  1  0
 12  2  1  0
 13  7  1  0
 14  8  1  0
M  END
$$$$

     RDKit          3D

 13 13  0  0  0  0  0  0  0  0999 V2000
   41.1390   38.3090   32.9410 O   0  0  0  0  0  0  0  0  0  0  0  0
   43.7930   41.7730   30.6100 S   0  0  0  0  0  0  0  0  0  0  0  0
   42.5470   37.5790   28.4630 O   0  0  0  0  0  0  0  0  0  0  0  0
   43.5180   39.6510   32.5470 N   0  0  0  0  0  0  0  0  0  0  0  0
   41.1730   35.2810   32.5910 C   0  0  0  0  0  0  0  0  0  0  0  0
   42.8610   38.5470   31.7050 C   0  0  0  0  0  0  0  0  0  0  0  0
   41.8680   37.9500   29.6140 C   0  0  0  0  0  0  0  0  0  0  0  0
   43.9780   40.9130   31.9810 C   0  0  0  0  0  0  0  0  0  0  0  0
   41.2580   36.8740   32.2810 C   0  0  0  0  0  0  0  0  0  0  0  0
   44.9030   41.6300   32.9740 S   0  0  0  0  0  0  0  0  0  0  0  0
   43.4530   37.1790   31.5460 C   0  0  0  0  0  0  0  0  0  0  0  0
   42.0290   36.9190   30.9480 C   0  0  0  0  0  0  0  0  0  0  0  0
   42.5810   39.4290   30.4000 S   0  0  0  0  0  0  0  0  0  0  0  0
  2  8  2  0
  6  4  1  0
  7  3  1  0
  7 13  1  0
  7 12  1  0
  8  4  1  0
  8 10  1  0
  9  5  1  0
  9  1  1  0
 11  6  1  0
 12 11  1  0
 12  9  1  0
 13  6  1  0
M  END
$$$$

     RDKit          3D

 18 21  0  0  0  0  0  0  0  0999 V2000
   41.7250   38.9310   30.4490 C   0  0  0  0  0  0  0  0  0  0  0  0
   41.1070   40.7530   28.3540 C   0  0  0  0  0  0  0  0  0  0  0  0
   41.3570   38.4550   29.2820 N   0  0  0  0  0  0  0  0  0  0  0  0
   40.8540   36.9460   33.4840 N   0  0  0  0  0  0  0  0  0  0  0  0
   40.6760   35.8800   32.2890 C   0  0  0  0  0  0  0  0  0  0  0  0
   41.0490   41.6910   27.3080 C   0  0  0  0  0  0  0  0  0  0  0  0
   41.1040   41.2580   29.6600 C   0  0  0  0  0  0  0  0  0  0  0  0
   41.7650   40.4510   30.7810 C   0  0  0  0  0  0  0  0  0  0  0  0
   40.5790   43.4730   28.8690 C   0  0  0  0  0  0  0  0  0  0  0  0
   44.1620   38.3290   30.3660 O   0  0  0  0  0  0  0  0  0  0  0  0
   43.5480   37.6980   31.1950 C   0  0  0  0  0  0  0  0  0  0  0  0
   40.8920   43.0400   27.5860 C   0  0  0  0  0  0  0  0  0  0  0  0
   43.1090   36.0570   32.8680 C   0  0  0  0  0  0  0  0  0  0  0  0
   44.0880   36.7340   31.9980 N   0  0  0  0  0  0  0  0  0  0  0  0
   41.1650   39.2580   28.0300 C   0  0  0  0  0  0  0  0  0  0  0  0
   41.7990   36.7450   32.4920 C   0  0  0  0  0  0  0  0  0  0  0  0
   42.0690   37.9260   31.4850 C   0  0  0  0  0  0  0  0  0  0  0  0
   40.5600   42.5070   29.9020 C   0  0  0  0  0  0  0  0  0  0  0  0
  1  8  1  0
  2  7  1  0
  3  1  2  0
  5  4  1  0
  6 12  1  0
  6  2  2  0
  7 18  2  0
  7  8  1  0
  9 18  1  0
 10 11  2  0
 11 17  1  0
 11 14  1  0
 12  9  2  0
 14 13  2  0
 15  2  1  0
 15  3  1  0
 16  5  1  0
 16 13  1  0
 16  4  1  0
 17  1  1  0
 17 16  1  0
M  END
$$$$
