
     RDKit          3D

 10 11  0  0  0  0  0  0  0  0999 V2000
   44.0640   35.3220   27.5070 O   0  0  0  0  0  0  0  0  0  0  0  0
   44.5790   35.5700   29.8600 C   0  0  0  0  0  0  0  0  0  0  0  0
   45.1380   36.9730   26.1660 O   0  0  0  0  0  0  0  0  0  0  0  0
   45.4260   36.4680   27.4860 C   0  0  0  0  0  0  0  0  0  0  0  0
   42.2770   36.3650   29.0840 C   0  0  0  0  0  0  0  0  0  0  0  0
   45.2190   35.6130   26.3510 C   0  0  0  0  0  0  0  0  0  0  0  0
   44.4600   37.4500   28.3010 C   0  0  0  0  0  0  0  0  0  0  0  0
   44.9420   34.5770   25.2180 C   0  0  0  0  0  0  0  0  0  0  0  0
   46.8890   36.8920   27.8580 O   0  0  0  0  0  0  0  0  0  0  0  0
   43.7400   36.1580   28.6890 C   0  0  0  0  0  0  0  0  0  0  0  0
  1 10  1  0
  3  6  1  0
  3  4  1  0
  4  9  1  0
  4  7  1  0
  6  8  1  0
  6  4  1  0
  6  1  1  0
  7 10  1  0
 10  5  1  0
 10  2  1  0
M  END
$$$$

     RDKit          3D

 24 24  0  0  0  0  0  0  0  0999 V2000
   40.8540   34.3300   22.9390 O   0  0  0  0  0  0  0  0  0  0  0  0
   46.8180   37.8010   31.0760 C   0  0  0  0  0  0  0  0  0  0  0  0
   44.0480   36.0340   28.8310 C   0  0  0  0  0  0  0  0  0  0  0  0
   43.2180   37.5240   27.3290 O   0  0  0  0  0  0  0  0  0  0  0  0
   45.0250   36.0300   30.0920 C   0  0  0  0  0  0  0  0  0  0  0  0
   41.1030   36.1370   26.7700 C   0  0  0  0  0  0  0  0  0  0  0  0
   46.8680   34.2260   30.1990 O   0  0  0  0  0  0  0  0  0  0  0  0
   42.8310   36.5030   28.2060 C   0  0  0  0  0  0  0  0  0  0  0  0
   42.6080   35.2590   26.6730 C   0  0  0  0  0  0  0  0  0  0  0  0
   40.4980   37.2460   25.7680 C   0  0  0  0  0  0  0  0  0  0  0  0
   39.9950   34.2350   25.7570 O   0  0  0  0  0  0  0  0  0  0  0  0
   40.6890   36.9500   24.3490 C   0  0  0  0  0  0  0  0  0  0  0  0
   44.5510   34.7930   27.9560 C   0  0  0  0  0  0  0  0  0  0  0  0
   46.4370   36.9050   33.2050 C   0  0  0  0  0  0  0  0  0  0  0  0
   39.5850   36.1210   23.8960 O   0  0  0  0  0  0  0  0  0  0  0  0
   46.0460   34.6270   28.1570 N   0  0  0  0  0  0  0  0  0  0  0  0
   41.0160   38.0190   23.3800 C   0  0  0  0  0  0  0  0  0  0  0  0
   39.4410   34.6230   24.2890 P   0  0  0  0  0  0  0  0  0  0  0  0
   47.1020   36.7700   31.9100 O   0  0  0  0  0  0  0  0  0  0  0  0
   38.1880   33.9380   24.0930 O   0  0  0  0  0  0  0  0  0  0  0  0
   46.3780   35.3040   29.5170 C   0  0  0  0  0  0  0  0  0  0  0  0
   45.5820   37.6260   30.2030 C   0  0  0  0  0  0  0  0  0  0  0  0
   44.0000   34.7950   26.6650 O   0  0  0  0  0  0  0  0  0  0  0  0
   46.9780   33.6940   27.5060 C   0  0  0  0  0  0  0  0  0  0  0  0
  1 18  2  0
  2 19  1  0
  3  8  1  0
  3  5  1  0
  4  8  1  0
  5 22  1  0
  9  6  1  0
 10  6  1  0
 12 17  1  0
 12 10  1  0
 13 23  1  0
 13 16  1  0
 13  3  1  0
 15 18  1  0
 15 12  1  0
 16 21  1  0
 18 11  1  0
 19 14  1  0
 20 18  1  0
 21  5  1  0
 21  7  1  0
 22  2  1  0
 23  9  1  0
 24 16  1  0
M  END
$$$$

     RDKit          3D

 11 11  0  0  0  0  0  0  0  0999 V2000
   47.5640   34.7460   28.6600 C   0  0  0  0  0  0  0  0  0  0  0  0
   46.9150   35.9010   30.6620 C   0  0  0  0  0  0  0  0  0  0  0  0
   43.9120   35.7000   29.4610 C   0  0  0  0  0  0  0  0  0  0  0  0
   45.8460   34.7190   30.5050 C   0  0  0  0  0  0  0  0  0  0  0  0
   43.4810   35.9310   26.9750 C   0  0  0  0  0  0  0  0  0  0  0  0
   47.6080   36.4010   30.9010 O   0  0  0  0  0  0  0  0  0  0  0  0
   45.2130   34.2700   27.9940 C   0  0  0  0  0  0  0  0  0  0  0  0
   46.1950   34.3490   29.1200 C   0  0  0  0  0  0  0  0  0  0  0  0
   47.5700   35.0710   27.2740 O   0  0  0  0  0  0  0  0  0  0  0  0
   44.1050   35.2130   28.1730 C   0  0  0  0  0  0  0  0  0  0  0  0
   44.3500   34.7010   30.3900 N   0  0  0  0  0  0  0  0  0  0  0  0
  2  6  1  0
  3 11  1  0
  4  2  1  0
  7 10  1  0
  7  8  1  0
  8  1  1  0
  8  4  1  0
  9  1  1  0
 10  5  1  0
 10  3  1  0
 11  4  1  0
M  END
$$$$

     RDKit          3D

  9  9  0  0  0  0  0  0  0  0999 V2000
   45.1170   36.7240   29.0070 C   0  0  0  0  0  0  0  0  0  0  0  0
   43.9430   37.0640   26.5880 C   0  0  0  0  0  0  0  0  0  0  0  0
   45.7570   37.5410   29.8790 N   0  0  0  0  0  0  0  0  0  0  0  0
   45.0720   35.2290   29.2470 N   0  0  0  0  0  0  0  0  0  0  0  0
   43.6430   37.8910   25.7700 O   0  0  0  0  0  0  0  0  0  0  0  0
   44.4840   37.4560   27.8410 N   0  0  0  0  0  0  0  0  0  0  0  0
   43.8500   35.7420   26.2850 N   0  0  0  0  0  0  0  0  0  0  0  0
   44.2240   34.9060   27.0790 C   0  0  0  0  0  0  0  0  0  0  0  0
   44.7990   34.1520   28.2690 C   0  0  0  0  0  0  0  0  0  0  0  0
  1  4  2  0
  1  3  1  0
  2  6  1  0
  5  2  2  0
  6  1  1  0
  7  2  1  0
  7  8  1  0
  8  9  1  0
  9  4  1  0
M  END
$$$$

     RDKit          3D

 18 19  0  0  0  0  0  0  0  0999 V2000
   40.9960   34.9850   25.9610 C   0  0  0  0  0  0  0  0  0  0  0  0
   42.9850   36.4860   26.5770 C   0  0  0  0  0  0  0  0  0  0  0  0
   38.9410   36.0570   23.0380 N   0  0  0  0  0  0  0  0  0  0  0  0
   43.4940   36.1260   27.9640 C   0  0  0  0  0  0  0  0  0  0  0  0
   43.6850   34.0700   26.7460 O   0  0  0  0  0  0  0  0  0  0  0  0
   39.6140   36.0380   24.3270 C   0  0  0  0  0  0  0  0  0  0  0  0
   39.7600   37.2540   24.9630 C   0  0  0  0  0  0  0  0  0  0  0  0
   45.1400   34.4020   28.7100 C   0  0  0  0  0  0  0  0  0  0  0  0
   45.5010   34.3230   29.9730 N   0  0  0  0  0  0  0  0  0  0  0  0
   40.6680   37.3430   25.9970 C   0  0  0  0  0  0  0  0  0  0  0  0
   41.4700   36.2570   26.2500 C   0  0  0  0  0  0  0  0  0  0  0  0
   43.7420   34.6380   28.0980 C   0  0  0  0  0  0  0  0  0  0  0  0
   47.2780   33.8220   28.7580 N   0  0  0  0  0  0  0  0  0  0  0  0
   40.1690   34.8680   24.8520 C   0  0  0  0  0  0  0  0  0  0  0  0
   44.7570   36.6900   28.4330 N   0  0  0  0  0  0  0  0  0  0  0  0
   46.8790   33.9240   29.9650 C   0  0  0  0  0  0  0  0  0  0  0  0
   46.2300   34.0700   27.9630 N   0  0  0  0  0  0  0  0  0  0  0  0
   43.6700   37.6450   25.9360 O   0  0  0  0  0  0  0  0  0  0  0  0
  1 11  1  0
  2 18  1  0
  2  4  1  0
  3  6  1  0
  4 12  1  0
  4 15  1  0
  6 14  1  0
  6  7  2  0
  7 10  1  0
  8  9  2  0
 10 11  2  0
 11  2  1  0
 12  5  1  0
 12  8  1  0
 13 16  2  0
 14  1  2  0
 16  9  1  0
 17  8  1  0
 17 13  1  0
M  END
$$$$

     RDKit          3D

 10 10  0  0  0  0  0  0  0  0999 V2000
   43.2400   36.8250   29.2460 O   0  0  0  0  0  0  0  0  0  0  0  0
   43.8130   34.9110   27.9210 C   0  0  0  0  0  0  0  0  0  0  0  0
   43.5740   34.1000   28.8070 O   0  0  0  0  0  0  0  0  0  0  0  0
   44.7650   35.2250   25.7650 C   0  0  0  0  0  0  0  0  0  0  0  0
   44.1750   38.2830   26.9680 O   0  0  0  0  0  0  0  0  0  0  0  0
   43.7550   36.3180   28.2060 C   0  0  0  0  0  0  0  0  0  0  0  0
   44.1050   34.4380   26.7630 O   0  0  0  0  0  0  0  0  0  0  0  0
   44.2920   37.1190   27.2080 C   0  0  0  0  0  0  0  0  0  0  0  0
   45.4120   36.4040   26.5010 C   0  0  0  0  0  0  0  0  0  0  0  0
   46.3290   37.1590   25.6860 N   0  0  0  0  0  0  0  0  0  0  0  0
  2  6  1  0
  2  3  2  0
  4  9  1  0
  4  7  1  0
  5  8  2  0
  6  1  2  0
  7  2  1  0
  8  6  1  0
  9 10  1  0
  9  8  1  0
M  END
$$$$

     RDKit          3D

 15 15  0  0  0  0  0  0  0  0999 V2000
   44.3110   37.3750   25.1260 C   0  0  0  0  0  0  0  0  0  0  0  0
   43.8210   35.0910   27.8070 C   0  0  0  0  0  0  0  0  0  0  0  0
   44.3970   34.0220   28.6510 O   0  0  0  0  0  0  0  0  0  0  0  0
   45.0430   35.9000   25.2620 C   0  0  0  0  0  0  0  0  0  0  0  0
   45.8310   36.6810   23.4950 C   0  0  0  0  0  0  0  0  0  0  0  0
   46.5340   33.2960   26.2060 O   0  0  0  0  0  0  0  0  0  0  0  0
   43.4660   37.2940   26.4820 C   0  0  0  0  0  0  0  0  0  0  0  0
   47.6490   36.0410   26.4590 O   0  0  0  0  0  0  0  0  0  0  0  0
   46.8570   35.3750   27.3790 C   0  0  0  0  0  0  0  0  0  0  0  0
   43.5610   37.1160   27.2040 C   0  0  0  0  0  0  0  0  0  0  0  0
   44.4870   36.6550   29.5890 O   0  0  0  0  0  0  0  0  0  0  0  0
   44.6740   35.0950   26.4260 C   0  0  0  0  0  0  0  0  0  0  0  0
   45.2760   35.3510   24.2880 O   0  0  0  0  0  0  0  0  0  0  0  0
   45.9840   34.4520   26.7360 C   0  0  0  0  0  0  0  0  0  0  0  0
   43.5760   36.4760   28.4590 C   0  0  0  0  0  0  0  0  0  0  0  0
  1  4  1  0
  1  7  1  0
  2 15  1  0
  2  3  1  0
  4 13  1  0
  4 12  1  0
  5 13  1  0
  7 10  1  0
  8  9  1  0
 10 15  1  0
 12 14  1  0
 12  2  1  0
 14  6  1  0
 14  9  1  0
 15 11  1  0
M  END
$$$$

     RDKit          3D

 13 13  0  0  0  0  0  0  0  0999 V2000
   45.8220   35.7570   29.0860 C   0  0  0  0  0  0  0  0  0  0  0  0
   47.7050   35.7960   30.2910 O   0  0  0  0  0  0  0  0  0  0  0  0
   44.0320   33.9750   29.1260 O   0  0  0  0  0  0  0  0  0  0  0  0
   43.4640   36.4310   28.8590 O   0  0  0  0  0  0  0  0  0  0  0  0
   44.2600   35.3210   28.3830 P   0  0  0  0  0  0  0  0  0  0  0  0
   43.9220   36.6050   24.6020 C   0  0  0  0  0  0  0  0  0  0  0  0
   46.5650   33.9710   30.3980 O   0  0  0  0  0  0  0  0  0  0  0  0
   46.8020   35.9110   27.8080 C   0  0  0  0  0  0  0  0  0  0  0  0
   46.7370   35.1110   29.9870 C   0  0  0  0  0  0  0  0  0  0  0  0
   46.4510   37.3080   27.3610 C   0  0  0  0  0  0  0  0  0  0  0  0
   45.3120   36.2280   30.3790 O   0  0  0  0  0  0  0  0  0  0  0  0
   44.4170   35.3210   26.8320 O   0  0  0  0  0  0  0  0  0  0  0  0
   43.6830   35.9040   25.7950 C   0  0  0  0  0  0  0  0  0  0  0  0
  1  8  1  0
  1  9  1  0
  1 11  1  0
  5  4  2  0
  5  1  1  0
  5  3  1  0
  6 13  1  0
  9  2  1  0
  9 11  1  0
  9  7  1  0
 10  8  1  0
 12  5  1  0
 13 12  1  0
M  END
$$$$

     RDKit          3D

  8  7  0  0  0  0  0  0  0  0999 V2000
   44.0800   34.2830   27.6770 N   0  0  0  0  0  0  0  0  0  0  0  0
   43.8140   36.5190   29.2340 O   0  0  0  0  0  0  0  0  0  0  0  0
   46.9740   34.7590   26.2460 N   0  0  0  0  0  0  0  0  0  0  0  0
   43.1670   35.0800   26.8270 C   0  0  0  0  0  0  0  0  0  0  0  0
   45.3060   35.0240   28.0990 C   0  0  0  0  0  0  0  0  0  0  0  0
   45.7300   37.3690   28.5890 O   0  0  0  0  0  0  0  0  0  0  0  0
   44.9140   36.3860   28.6260 C   0  0  0  0  0  0  0  0  0  0  0  0
   46.2540   35.0310   27.0970 C   0  0  0  0  0  0  0  0  0  0  0  0
  1  5  1  0
  3  8  3  0
  4  1  1  0
  5  8  1  0
  5  7  1  0
  6  7  2  0
  7  2  1  0
M  END
$$$$

     RDKit          3D

 10  9  0  0  0  0  0  0  0  0999 V2000
   44.1090   34.8160   26.4910 O   0  0  0  0  0  0  0  0  0  0  0  0
   46.6040   35.1790   25.8180 C   0  0  0  0  0  0  0  0  0  0  0  0
   42.6510   36.6530   26.9350 O   0  0  0  0  0  0  0  0  0  0  0  0
   46.4790   35.3020   24.7580 O   0  0  0  0  0  0  0  0  0  0  0  0
   43.8310   35.8130   27.5980 P   0  0  0  0  0  0  0  0  0  0  0  0
   46.0680   34.6290   28.2860 O   0  0  0  0  0  0  0  0  0  0  0  0
   46.8090   35.2330   27.1930 C   0  0  0  0  0  0  0  0  0  0  0  0
   43.4190   35.2100   28.8590 O   0  0  0  0  0  0  0  0  0  0  0  0
   44.9600   36.9010   27.6590 O   0  0  0  0  0  0  0  0  0  0  0  0
   46.2720   36.7410   27.1920 C   0  0  0  0  0  0  0  0  0  0  0  0
  1  5  2  0
  2  7  1  0
  3  5  1  0
  4  2  1  0
  5  9  1  0
  5  8  1  0
  7  6  1  0
 10  7  1  0
 10  9  1  0
M  END
$$$$

     RDKit          3D

 22 26  0  0  0  0  0  0  0  0999 V2000
   46.6520   34.3650   29.2710 C   0  0  0  0  0  0  0  0  0  0  0  0
   44.6860   34.8720   29.8330 C   0  0  0  0  0  0  0  0  0  0  0  0
   48.8410   35.0780   30.1360 C   0  0  0  0  0  0  0  0  0  0  0  0
   39.8080   36.4070   25.6120 C   0  0  0  0  0  0  0  0  0  0  0  0
   41.9490   35.9920   27.1940 C   0  0  0  0  0  0  0  0  0  0  0  0
   44.7290   35.8530   30.5010 O   0  0  0  0  0  0  0  0  0  0  0  0
   47.2840   33.2470   28.4990 C   0  0  0  0  0  0  0  0  0  0  0  0
   39.1520   34.5970   23.9710 N   0  0  0  0  0  0  0  0  0  0  0  0
   49.5090   34.3920   28.8770 C   0  0  0  0  0  0  0  0  0  0  0  0
   43.6600   36.3850   26.7740 S   0  0  0  0  0  0  0  0  0  0  0  0
   44.6950   35.0760   27.5450 C   0  0  0  0  0  0  0  0  0  0  0  0
   39.5870   36.0370   24.1710 C   0  0  0  0  0  0  0  0  0  0  0  0
   45.4810   33.8920   29.8000 N   0  0  0  0  0  0  0  0  0  0  0  0
   40.9030   35.5180   26.1650 C   0  0  0  0  0  0  0  0  0  0  0  0
   49.4040   35.9040   30.8830 O   0  0  0  0  0  0  0  0  0  0  0  0
   47.5950   34.6230   30.4480 N   0  0  0  0  0  0  0  0  0  0  0  0
   41.2370   34.5520   25.3680 N   0  0  0  0  0  0  0  0  0  0  0  0
   48.7010   33.4770   27.8820 C   0  0  0  0  0  0  0  0  0  0  0  0
   46.2710   35.4730   28.2720 C   0  0  0  0  0  0  0  0  0  0  0  0
   40.5600   34.8220   23.9020 C   0  0  0  0  0  0  0  0  0  0  0  0
   42.1710   34.8720   27.9210 N   0  0  0  0  0  0  0  0  0  0  0  0
   43.8790   34.6320   28.6810 C   0  0  0  0  0  0  0  0  0  0  0  0
  1 19  1  0
  1 13  1  0
  1 16  1  0
  2  6  2  0
  3 16  1  0
  3 15  2  0
  5 10  1  0
  5 21  1  0
  7  1  1  0
  8 12  1  0
  9  3  1  0
 10 11  1  0
 11 19  1  0
 11 22  1  0
 12  4  1  0
 13  2  1  0
 14  4  1  0
 14  5  1  0
 17 14  1  0
 18  7  1  0
 18  9  1  0
 20  8  1  0
 20 12  1  0
 20 17  1  0
 22 21  1  0
 22  2  1  0
M  END
$$$$

     RDKit          3D

 11 10  0  0  0  0  0  0  0  0999 V2000
   42.4910   37.7830   24.3630 C   0  0  0  0  0  0  0  0  0  0  0  0
   45.6440   35.5210   28.0780 C   0  0  0  0  0  0  0  0  0  0  0  0
   44.5650   36.0320   29.0900 O   0  0  0  0  0  0  0  0  0  0  0  0
   43.8300   38.2820   24.9170 C   0  0  0  0  0  0  0  0  0  0  0  0
   44.8010   35.0150   27.0810 C   0  0  0  0  0  0  0  0  0  0  0  0
   43.9870   35.9090   26.0980 C   0  0  0  0  0  0  0  0  0  0  0  0
   41.9480   38.9510   23.4020 C   0  0  0  0  0  0  0  0  0  0  0  0
   46.7670   34.3560   28.1150 O   0  0  0  0  0  0  0  0  0  0  0  0
   46.4780   36.6470   27.9260 C   0  0  0  0  0  0  0  0  0  0  0  0
   44.6330   37.7220   26.2620 S   0  0  0  0  0  0  0  0  0  0  0  0
   47.5140   34.3800   26.7250 C   0  0  0  0  0  0  0  0  0  0  0  0
  1  4  1  0
  2  9  1  0
  2  8  1  0
  2  3  1  0
  4 10  1  0
  5  2  1  0
  6 10  1  0
  6  5  1  0
  7  1  1  0
 11  8  1  0
M  END
$$$$

     RDKit          3D

 11 10  0  0  0  0  0  0  0  0999 V2000
   42.6920   33.6740   29.3180 C   0  0  0  0  0  0  0  0  0  0  0  0
   43.5970   34.7360   28.8720 C   0  0  0  0  0  0  0  0  0  0  0  0
   44.7760   34.5170   28.5160 O   0  0  0  0  0  0  0  0  0  0  0  0
   40.0350   36.0990   24.9750 C   0  0  0  0  0  0  0  0  0  0  0  0
   43.0730   35.7120   26.6950 C   0  0  0  0  0  0  0  0  0  0  0  0
   40.8200   36.8270   26.0870 C   0  0  0  0  0  0  0  0  0  0  0  0
   42.6880   36.0700   28.3110 S   0  0  0  0  0  0  0  0  0  0  0  0
   39.3880   37.0570   24.2440 O   0  0  0  0  0  0  0  0  0  0  0  0
   40.5250   34.9990   24.1690 N   0  0  0  0  0  0  0  0  0  0  0  0
   42.7670   37.0100   24.7660 O   0  0  0  0  0  0  0  0  0  0  0  0
   42.2700   36.5640   25.7740 C   0  0  0  0  0  0  0  0  0  0  0  0
  2  1  1  0
  3  2  2  0
  4  6  1  0
  5  7  1  0
  7  2  1  0
  8  4  2  0
  9  4  1  0
 10 11  2  0
 11  6  1  0
 11  5  1  0
M  END
$$$$

     RDKit          3D

 15 14  0  0  0  0  0  0  0  0999 V2000
   43.3810   33.8840   29.5810 O   0  0  0  0  0  0  0  0  0  0  0  0
   42.6340   34.6790   25.4680 O   0  0  0  0  0  0  0  0  0  0  0  0
   45.9950   38.8730   28.7220 O   0  0  0  0  0  0  0  0  0  0  0  0
   45.1920   35.3110   28.3080 O   0  0  0  0  0  0  0  0  0  0  0  0
   44.6250   35.2350   27.2210 C   0  0  0  0  0  0  0  0  0  0  0  0
   44.2070   36.9560   27.2550 C   0  0  0  0  0  0  0  0  0  0  0  0
   42.2130   34.9780   26.8150 C   0  0  0  0  0  0  0  0  0  0  0  0
   43.4380   34.8420   27.7250 C   0  0  0  0  0  0  0  0  0  0  0  0
   46.8470   38.9260   25.6470 C   0  0  0  0  0  0  0  0  0  0  0  0
   44.5270   38.5020   25.0080 C   0  0  0  0  0  0  0  0  0  0  0  0
   45.6890   37.1930   26.9570 C   0  0  0  0  0  0  0  0  0  0  0  0
   45.6290   38.2490   25.7970 C   0  0  0  0  0  0  0  0  0  0  0  0
   43.4120   37.3070   26.2360 O   0  0  0  0  0  0  0  0  0  0  0  0
   43.8450   33.4710   28.2620 C   0  0  0  0  0  0  0  0  0  0  0  0
   46.3210   37.5270   28.3780 C   0  0  0  0  0  0  0  0  0  0  0  0
  2  7  1  0
  5  6  1  0
  5  8  1  0
  5  4  1  0
  6 13  1  0
  7  8  1  0
  8 14  1  0
  9 12  1  0
 10 12  1  0
 11  6  1  0
 11 15  1  0
 12 11  1  0
 14  1  1  0
 15  3  1  0
M  END
$$$$

     RDKit          3D

 27 27  0  0  0  0  0  0  0  0999 V2000
   45.8990   35.4560   25.8480 O   0  0  0  0  0  0  0  0  0  0  0  0
   40.2650   34.7100   26.1970 C   0  0  0  0  0  0  0  0  0  0  0  0
   45.5090   34.9990   28.8440 C   0  0  0  0  0  0  0  0  0  0  0  0
   49.1240   32.6500   27.6530 F   0  0  0  0  0  0  0  0  0  0  0  0
   44.7870   33.5610   26.7790 O   0  0  0  0  0  0  0  0  0  0  0  0
   45.1180   38.7140   30.3980 C   0  0  0  0  0  0  0  0  0  0  0  0
   47.2010   33.9660   27.2210 O   0  0  0  0  0  0  0  0  0  0  0  0
   44.5470   35.3010   30.9240 O   0  0  0  0  0  0  0  0  0  0  0  0
   45.7540   34.6080   27.1350 P   0  0  0  0  0  0  0  0  0  0  0  0
   41.3350   36.9850   25.2270 N   0  0  0  0  0  0  0  0  0  0  0  0
   42.9090   36.1350   28.7130 C   0  0  0  0  0  0  0  0  0  0  0  0
   39.2570   35.7790   24.2780 C   0  0  0  0  0  0  0  0  0  0  0  0
   43.1810   38.1710   26.3640 O   0  0  0  0  0  0  0  0  0  0  0  0
   38.6920   34.6570   24.2370 O   0  0  0  0  0  0  0  0  0  0  0  0
   48.1490   33.5820   28.4460 P   0  0  0  0  0  0  0  0  0  0  0  0
   41.3080   34.7800   27.3580 C   0  0  0  0  0  0  0  0  0  0  0  0
   41.7560   36.2490   27.6740 C   0  0  0  0  0  0  0  0  0  0  0  0
   40.1160   36.1190   25.5190 C   0  0  0  0  0  0  0  0  0  0  0  0
   42.3050   37.0170   26.4410 C   0  0  0  0  0  0  0  0  0  0  0  0
   44.4180   34.5490   29.7520 C   0  0  0  0  0  0  0  0  0  0  0  0
   47.1710   33.0720   29.4610 O   0  0  0  0  0  0  0  0  0  0  0  0
   46.1290   36.0170   29.0030 O   0  0  0  0  0  0  0  0  0  0  0  0
   43.6260   37.2840   28.9720 C   0  0  0  0  0  0  0  0  0  0  0  0
   39.2460   36.6970   23.3830 O   0  0  0  0  0  0  0  0  0  0  0  0
   42.9980   34.7990   29.2590 C   0  0  0  0  0  0  0  0  0  0  0  0
   49.3010   34.2630   29.1400 O   0  0  0  0  0  0  0  0  0  0  0  0
   43.7580   38.5820   29.6970 C   0  0  0  0  0  0  0  0  0  0  0  0
  2 16  1  0
  3 22  2  0
  3 20  1  0
  5  9  1  0
  7 15  1  0
  9  1  2  0
  9  7  1  0
  9  3  1  0
 10 18  1  0
 10 19  1  0
 11 23  1  0
 11 25  1  0
 13 19  2  0
 14 12  1  0
 15  4  1  0
 15 26  2  0
 15 21  1  0
 16 17  1  0
 17 11  1  0
 18 12  1  0
 18  2  1  0
 19 17  1  0
 20  8  1  0
 23 27  1  0
 24 12  2  0
 25 20  1  0
 27  6  1  0
M  END
$$$$

     RDKit          3D

  9  9  0  0  0  0  0  0  0  0999 V2000
   46.0800   35.1400   28.7480 C   0  0  0  0  0  0  0  0  0  0  0  0
   46.1300   34.4150   27.5650 C   0  0  0  0  0  0  0  0  0  0  0  0
   45.2830   36.2770   28.7500 C   0  0  0  0  0  0  0  0  0  0  0  0
   45.3920   34.7860   26.4330 C   0  0  0  0  0  0  0  0  0  0  0  0
   45.2000   37.0230   29.9230 O   0  0  0  0  0  0  0  0  0  0  0  0
   44.6870   36.7670   27.5810 C   0  0  0  0  0  0  0  0  0  0  0  0
   44.1070   37.9800   27.5460 O   0  0  0  0  0  0  0  0  0  0  0  0
   44.6870   35.9600   26.4530 C   0  0  0  0  0  0  0  0  0  0  0  0
   46.8720   34.7660   29.8420 O   0  0  0  0  0  0  0  0  0  0  0  0
  1  3  1  0
  1  9  1  0
  2  1  2  0
  3  5  1  0
  4  8  2  0
  4  2  1  0
  6  3  2  0
  7  6  1  0
  8  6  1  0
M  END
$$$$

     RDKit          3D

 20 21  0  0  0  0  0  0  0  0999 V2000
   42.4590   34.7460   29.3370 C   0  0  0  0  0  0  0  0  0  0  0  0
   40.3710   36.9280   25.8130 C   0  0  0  0  0  0  0  0  0  0  0  0
   45.1400   34.5030   30.1330 C   0  0  0  0  0  0  0  0  0  0  0  0
   42.2160   35.3790   27.0910 C   0  0  0  0  0  0  0  0  0  0  0  0
   42.6250   36.6380   24.9890 C   0  0  0  0  0  0  0  0  0  0  0  0
   39.6990   33.9590   29.6210 C   0  0  0  0  0  0  0  0  0  0  0  0
   46.6240   36.0910   28.1100 C   0  0  0  0  0  0  0  0  0  0  0  0
   41.4040   37.5010   24.7560 C   0  0  0  0  0  0  0  0  0  0  0  0
   42.9610   36.4660   26.3720 O   0  0  0  0  0  0  0  0  0  0  0  0
   47.0560   35.9960   29.6190 C   0  0  0  0  0  0  0  0  0  0  0  0
   40.1800   32.6500   29.2360 N   0  0  0  0  0  0  0  0  0  0  0  0
   43.3420   36.0540   24.1210 O   0  0  0  0  0  0  0  0  0  0  0  0
   41.5280   35.1410   28.3410 N   0  0  0  0  0  0  0  0  0  0  0  0
   41.2740   34.8060   25.9680 C   0  0  0  0  0  0  0  0  0  0  0  0
   46.6440   34.5770   30.0940 C   0  0  0  0  0  0  0  0  0  0  0  0
   40.1460   35.5590   26.3410 O   0  0  0  0  0  0  0  0  0  0  0  0
   40.8650   37.5700   23.4840 O   0  0  0  0  0  0  0  0  0  0  0  0
   40.0510   35.0980   28.6730 C   0  0  0  0  0  0  0  0  0  0  0  0
   45.0630   36.1390   27.8520 C   0  0  0  0  0  0  0  0  0  0  0  0
   44.1280   34.6850   28.5910 S   0  0  0  0  0  0  0  0  0  0  0  0
  2 16  1  0
  4 13  1  0
  5  9  1  0
  7 10  1  0
  8 17  1  0
  8  5  1  0
  8  2  1  0
  9  4  1  0
 10 15  1  0
 11  6  1  0
 12  5  2  0
 13 18  1  0
 13  1  1  0
 14 16  1  0
 14  4  1  0
 15  3  1  0
 18  6  1  0
 19  7  1  0
 19 20  1  0
 20  1  1  0
 20  3  1  0
M  END
$$$$

     RDKit          3D

  9  9  0  0  0  0  0  0  0  0999 V2000
   43.5880   35.4700   27.3600 C   0  0  0  0  0  0  0  0  0  0  0  0
   44.4030   33.4370   29.1590 N   0  0  0  0  0  0  0  0  0  0  0  0
   46.1400   34.7360   29.7040 O   0  0  0  0  0  0  0  0  0  0  0  0
   44.8500   35.5000   27.9580 C   0  0  0  0  0  0  0  0  0  0  0  0
   45.1810   34.5400   28.9830 C   0  0  0  0  0  0  0  0  0  0  0  0
   44.1210   37.4230   26.0690 C   0  0  0  0  0  0  0  0  0  0  0  0
   43.2330   36.4210   26.4210 C   0  0  0  0  0  0  0  0  0  0  0  0
   45.7420   36.5320   27.6260 C   0  0  0  0  0  0  0  0  0  0  0  0
   45.4330   37.4180   26.6190 C   0  0  0  0  0  0  0  0  0  0  0  0
  1  4  1  0
  4  5  1  0
  5  2  1  0
  5  3  2  0
  6  7  1  0
  6  9  2  0
  7  1  2  0
  8  4  2  0
  9  8  1  0
M  END
$$$$

     RDKit          3D

 11 12  0  0  0  0  0  0  0  0999 V2000
   39.8150   35.2340   24.8010 C   0  0  0  0  0  0  0  0  0  0  0  0
   39.7760   36.6000   24.6670 C   0  0  0  0  0  0  0  0  0  0  0  0
   40.8480   37.3750   25.0460 C   0  0  0  0  0  0  0  0  0  0  0  0
   42.8130   34.8260   26.7750 N   0  0  0  0  0  0  0  0  0  0  0  0
   43.5130   36.0710   27.1560 C   0  0  0  0  0  0  0  0  0  0  0  0
   41.8700   36.6490   25.6920 C   0  0  0  0  0  0  0  0  0  0  0  0
   40.7460   34.5190   25.4290 C   0  0  0  0  0  0  0  0  0  0  0  0
   43.3450   36.6190   28.3210 N   0  0  0  0  0  0  0  0  0  0  0  0
   38.6650   34.3200   24.0600 Cl  0  0  0  0  0  0  0  0  0  0  0  0
   41.7680   35.3100   25.8170 C   0  0  0  0  0  0  0  0  0  0  0  0
   42.9860   37.0620   26.1290 N   0  0  0  0  0  0  0  0  0  0  0  0
  1  7  1  0
  2  1  2  0
  2  3  1  0
  3  6  2  0
  4  5  1  0
  5  8  1  0
  6 10  1  0
  6 11  1  0
  7 10  2  0
  9  1  1  0
 10  4  1  0
 11  5  1  0
M  END
$$$$

     RDKit          3D

 10  9  0  0  0  0  0  0  0  0999 V2000
   43.3990   34.8440   27.3710 C   0  0  0  0  0  0  0  0  0  0  0  0
   43.5460   36.6080   29.2950 O   0  0  0  0  0  0  0  0  0  0  0  0
   45.0240   34.0820   29.1230 O   0  0  0  0  0  0  0  0  0  0  0  0
   45.7200   35.7500   27.4690 C   0  0  0  0  0  0  0  0  0  0  0  0
   45.2460   36.7890   27.8860 O   0  0  0  0  0  0  0  0  0  0  0  0
   42.7920   35.9150   28.3250 C   0  0  0  0  0  0  0  0  0  0  0  0
   41.9990   36.8640   27.6000 O   0  0  0  0  0  0  0  0  0  0  0  0
   46.7090   35.7120   26.7340 O   0  0  0  0  0  0  0  0  0  0  0  0
   43.2400   35.0760   25.9250 O   0  0  0  0  0  0  0  0  0  0  0  0
   44.8800   34.4870   27.7660 C   0  0  0  0  0  0  0  0  0  0  0  0
  1  9  1  0
  1 10  1  0
  1  6  1  0
  4 10  1  0
  4  5  1  0
  6  2  1  0
  7  6  1  0
  8  4  2  0
 10  3  1  0
M  END
$$$$
