
     RDKit          3D

 25 27  0  0  0  0  0  0  0  0999 V2000
   40.5910   35.4860   24.9760 C   0  0  0  0  0  0  0  0  0  0  0  0
   39.2650   35.9130   28.6080 C   0  0  0  0  0  0  0  0  0  0  0  0
   44.4760   36.5140   28.4980 N   0  0  0  0  0  0  0  0  0  0  0  0
   39.6410   33.6320   29.3440 C   0  0  0  0  0  0  0  0  0  0  0  0
   46.6780   38.4910   34.4110 O   0  0  0  0  0  0  0  0  0  0  0  0
   40.5930   35.9700   28.2270 C   0  0  0  0  0  0  0  0  0  0  0  0
   45.7670   36.6000   33.2870 C   0  0  0  0  0  0  0  0  0  0  0  0
   44.4420   38.5010   34.1180 C   0  0  0  0  0  0  0  0  0  0  0  0
   44.3460   36.7530   29.8890 C   0  0  0  0  0  0  0  0  0  0  0  0
   44.2030   35.3300   29.2760 C   0  0  0  0  0  0  0  0  0  0  0  0
   41.1090   38.4930   28.3300 O   0  0  0  0  0  0  0  0  0  0  0  0
   41.1240   37.2780   27.6910 C   0  0  0  0  0  0  0  0  0  0  0  0
   40.9650   33.6710   28.9500 C   0  0  0  0  0  0  0  0  0  0  0  0
   45.6570   37.1880   30.2800 O   0  0  0  0  0  0  0  0  0  0  0  0
   43.6590   37.0020   27.4180 C   0  0  0  0  0  0  0  0  0  0  0  0
   45.6590   37.8500   34.0660 C   0  0  0  0  0  0  0  0  0  0  0  0
   46.4540   36.1750   30.9270 C   0  0  0  0  0  0  0  0  0  0  0  0
   39.5450   34.8030   24.2740 N   0  0  0  0  0  0  0  0  0  0  0  0
   40.9120   37.5610   26.0980 C   0  0  0  0  0  0  0  0  0  0  0  0
   38.4410   35.3020   24.0130 O   0  0  0  0  0  0  0  0  0  0  0  0
   42.4620   37.8560   28.1080 C   0  0  0  0  0  0  0  0  0  0  0  0
   41.4310   34.8510   28.3600 C   0  0  0  0  0  0  0  0  0  0  0  0
   46.9080   36.5960   32.3050 C   0  0  0  0  0  0  0  0  0  0  0  0
   40.3320   36.8880   25.2500 C   0  0  0  0  0  0  0  0  0  0  0  0
   38.7990   34.7210   29.1310 C   0  0  0  0  0  0  0  0  0  0  0  0
  1 24  1  0
  2 25  1  0
  3 10  1  0
  3  9  1  0
  6 22  1  0
  6  2  2  0
  7 16  1  0
  9 14  1  0
 10  9  1  0
 12 19  1  0
 12 21  1  0
 12  6  1  0
 12 11  1  0
 13  4  1  0
 14 17  1  0
 15  3  1  0
 16  8  1  0
 16  5  2  0
 17 23  1  0
 18  1  1  0
 20 18  2  0
 21 15  1  0
 21 11  1  0
 22 13  2  0
 23  7  1  0
 24 19  1  0
 25  4  2  0
M  END
$$$$

     RDKit          3D

 10 11  0  0  0  0  0  0  0  0999 V2000
   42.7920   35.1010   26.7300 C   0  0  0  0  0  0  0  0  0  0  0  0
   43.1300   36.3770   27.3580 C   0  0  0  0  0  0  0  0  0  0  0  0
   44.7030   36.3260   27.4050 C   0  0  0  0  0  0  0  0  0  0  0  0
   41.6460   37.3400   27.4100 C   0  0  0  0  0  0  0  0  0  0  0  0
   40.7990   36.0880   27.7180 C   0  0  0  0  0  0  0  0  0  0  0  0
   41.3600   34.9170   27.0400 N   0  0  0  0  0  0  0  0  0  0  0  0
   46.0460   36.7480   25.4330 N   0  0  0  0  0  0  0  0  0  0  0  0
   45.4790   37.4080   26.6380 C   0  0  0  0  0  0  0  0  0  0  0  0
   42.9970   37.8320   27.0960 C   0  0  0  0  0  0  0  0  0  0  0  0
   45.2660   35.1290   27.9610 O   0  0  0  0  0  0  0  0  0  0  0  0
  1  6  1  0
  1  2  1  0
  2  3  1  0
  2  4  1  0
  3 10  1  0
  4  9  1  0
  4  5  1  0
  6  5  1  0
  7  8  1  0
  8  3  1  0
  9  2  1  0
M  END
$$$$

     RDKit          3D

  8  7  0  0  0  0  0  0  0  0999 V2000
   42.7160   35.4280   25.9160 C   0  0  0  0  0  0  0  0  0  0  0  0
   41.9130   35.3460   24.9100 N   0  0  0  0  0  0  0  0  0  0  0  0
   44.8150   34.7780   24.1570 C   0  0  0  0  0  0  0  0  0  0  0  0
   42.0900   35.7840   27.3150 C   0  0  0  0  0  0  0  0  0  0  0  0
   41.3780   37.1060   27.0780 C   0  0  0  0  0  0  0  0  0  0  0  0
   44.2990   35.2180   25.6890 C   0  0  0  0  0  0  0  0  0  0  0  0
   43.0630   35.7770   28.4700 N   0  0  0  0  0  0  0  0  0  0  0  0
   41.0180   34.7860   27.7090 C   0  0  0  0  0  0  0  0  0  0  0  0
  1  4  1  0
  2  1  2  0
  3  6  1  0
  4  8  1  0
  4  7  1  0
  5  4  1  0
  6  1  1  0
M  END
$$$$

     RDKit          3D

  4  3  0  0  0  0  0  0  0  0999 V2000
   40.6180   33.8220   28.0180 N   0  0  0  0  0  0  0  0  0  0  0  0
   42.2660   35.3070   26.9350 C   0  0  0  0  0  0  0  0  0  0  0  0
   42.7070   36.6930   26.8950 O   0  0  0  0  0  0  0  0  0  0  0  0
   41.4560   35.0410   28.1810 C   0  0  0  0  0  0  0  0  0  0  0  0
  1  4  1  0
  2  4  1  0
  3  2  1  0
M  END
$$$$

     RDKit          3D

 17 18  0  0  0  0  0  0  0  0999 V2000
   41.0520   39.0670   24.0150 C   0  0  0  0  0  0  0  0  0  0  0  0
   42.0050   37.4780   25.9510 C   0  0  0  0  0  0  0  0  0  0  0  0
   42.1530   35.9120   25.7070 C   0  0  0  0  0  0  0  0  0  0  0  0
   43.5660   35.5450   25.1610 O   0  0  0  0  0  0  0  0  0  0  0  0
   41.6070   36.8180   24.7940 O   0  0  0  0  0  0  0  0  0  0  0  0
   41.5900   39.0010   25.3320 C   0  0  0  0  0  0  0  0  0  0  0  0
   40.7130   38.8560   26.3330 C   0  0  0  0  0  0  0  0  0  0  0  0
   40.2290   36.9270   25.0660 C   0  0  0  0  0  0  0  0  0  0  0  0
   39.8750   35.4110   25.1240 C   0  0  0  0  0  0  0  0  0  0  0  0
   40.4200   35.3400   22.7810 O   0  0  0  0  0  0  0  0  0  0  0  0
   39.5760   34.9590   23.6990 C   0  0  0  0  0  0  0  0  0  0  0  0
   39.5130   38.8630   23.2570 S   0  0  0  0  0  0  0  0  0  0  0  0
   40.3500   37.4560   26.4380 C   0  0  0  0  0  0  0  0  0  0  0  0
   38.4780   34.4950   23.3140 O   0  0  0  0  0  0  0  0  0  0  0  0
   42.1890   35.7580   27.2980 C   0  0  0  0  0  0  0  0  0  0  0  0
   39.1920   40.2200   22.4310 C   0  0  0  0  0  0  0  0  0  0  0  0
   42.7110   37.0910   27.8520 C   0  0  0  0  0  0  0  0  0  0  0  0
  2  5  1  0
  2 13  1  0
  3  4  1  0
  3  2  1  0
  3 15  1  0
  5  3  1  0
  6  1  1  0
  6  2  1  0
  6  7  1  0
  7 13  1  0
  8  9  1  0
 10 11  2  0
 11  9  1  0
 12  1  1  0
 13  8  1  0
 14 11  1  0
 15 17  1  0
 16 12  1  0
M  END
$$$$

     RDKit          3D

 20 22  0  0  0  0  0  0  0  0999 V2000
   40.0680   35.0730   27.0270 C   0  0  0  0  0  0  0  0  0  0  0  0
   39.4810   35.0810   22.5880 C   0  0  0  0  0  0  0  0  0  0  0  0
   42.6620   35.8900   26.9510 C   0  0  0  0  0  0  0  0  0  0  0  0
   44.3940   38.4650   26.5440 C   0  0  0  0  0  0  0  0  0  0  0  0
   41.1720   39.2520   26.9090 O   0  0  0  0  0  0  0  0  0  0  0  0
   39.7540   34.8610   25.6100 N   0  0  0  0  0  0  0  0  0  0  0  0
   43.5840   38.1930   27.6380 C   0  0  0  0  0  0  0  0  0  0  0  0
   42.3840   34.5920   27.6750 C   0  0  0  0  0  0  0  0  0  0  0  0
   39.6590   36.0570   24.8990 C   0  0  0  0  0  0  0  0  0  0  0  0
   39.0940   35.1590   21.2670 C   0  0  0  0  0  0  0  0  0  0  0  0
   38.3600   36.2240   20.8140 C   0  0  0  0  0  0  0  0  0  0  0  0
   38.0780   37.2700   21.6670 C   0  0  0  0  0  0  0  0  0  0  0  0
   38.4830   37.2060   22.9890 C   0  0  0  0  0  0  0  0  0  0  0  0
   40.2570   36.6170   27.0850 C   0  0  0  0  0  0  0  0  0  0  0  0
   44.0010   37.6140   28.7330 O   0  0  0  0  0  0  0  0  0  0  0  0
   41.6710   36.8730   27.4640 N   0  0  0  0  0  0  0  0  0  0  0  0
   42.0400   38.3590   27.4930 C   0  0  0  0  0  0  0  0  0  0  0  0
   41.1150   34.5150   28.0700 C   0  0  0  0  0  0  0  0  0  0  0  0
   39.1580   36.0880   23.4650 C   0  0  0  0  0  0  0  0  0  0  0  0
   39.9610   37.2890   25.7560 C   0  0  0  0  0  0  0  0  0  0  0  0
  1 14  1  0
  1 18  1  0
  2 19  1  0
  3 16  1  0
  3  8  1  0
  5 17  2  0
  6  1  1  0
  7  4  1  0
  7 15  1  0
  8 18  1  0
  9  6  2  0
  9 20  1  0
 10  2  2  0
 11 10  1  0
 11 12  2  0
 12 13  1  0
 13 19  2  0
 14 20  1  0
 14 16  1  0
 16 17  1  0
 17  7  1  0
 19  9  1  0
M  END
$$$$

     RDKit          3D

 21 22  0  0  0  0  0  0  0  0999 V2000
   44.3720   38.0900   22.8810 C   0  0  0  0  0  0  0  0  0  0  0  0
   43.7990   35.8890   25.7150 C   0  0  0  0  0  0  0  0  0  0  0  0
   41.1230   35.5610   26.9380 C   0  0  0  0  0  0  0  0  0  0  0  0
   40.0050   36.7740   27.0370 C   0  0  0  0  0  0  0  0  0  0  0  0
   44.8990   35.1340   28.2160 C   0  0  0  0  0  0  0  0  0  0  0  0
   42.9820   35.8560   29.3850 O   0  0  0  0  0  0  0  0  0  0  0  0
   40.9080   34.3890   27.9040 C   0  0  0  0  0  0  0  0  0  0  0  0
   42.9970   34.8870   22.8950 O   0  0  0  0  0  0  0  0  0  0  0  0
   43.5720   35.4970   28.1960 C   0  0  0  0  0  0  0  0  0  0  0  0
   43.3800   36.7840   24.5950 C   0  0  0  0  0  0  0  0  0  0  0  0
   40.1360   35.6650   23.4900 O   0  0  0  0  0  0  0  0  0  0  0  0
   44.6050   37.1110   24.0040 O   0  0  0  0  0  0  0  0  0  0  0  0
   45.7580   35.4280   27.1180 C   0  0  0  0  0  0  0  0  0  0  0  0
   42.4840   36.0730   23.5390 C   0  0  0  0  0  0  0  0  0  0  0  0
   42.8230   35.5050   26.8840 C   0  0  0  0  0  0  0  0  0  0  0  0
   45.4990   38.9280   22.9360 O   0  0  0  0  0  0  0  0  0  0  0  0
   39.7570   34.2800   28.9140 C   0  0  0  0  0  0  0  0  0  0  0  0
   41.1630   35.5830   24.2520 C   0  0  0  0  0  0  0  0  0  0  0  0
   39.6170   34.7520   25.9860 O   0  0  0  0  0  0  0  0  0  0  0  0
   45.2130   35.8210   25.8720 C   0  0  0  0  0  0  0  0  0  0  0  0
   40.7390   35.3410   25.6420 C   0  0  0  0  0  0  0  0  0  0  0  0
  1 16  1  0
  1 12  1  0
  2 20  2  0
  2 15  1  0
  3  4  1  0
  3  7  1  0
  7 17  1  0
  9  5  1  0
  9  6  1  0
 10 12  1  0
 10  2  1  0
 11 18  2  0
 13  5  2  0
 14  8  1  0
 14 18  1  0
 14 10  1  0
 15  3  1  0
 15  9  2  0
 18 21  1  0
 20 13  1  0
 21 19  1  0
 21  3  1  0
M  END
$$$$

     RDKit          3D

 20 22  0  0  0  0  0  0  0  0999 V2000
   40.2560   35.2540   26.6660 C   0  0  0  0  0  0  0  0  0  0  0  0
   41.1830   38.3020   23.2380 O   0  0  0  0  0  0  0  0  0  0  0  0
   40.4280   37.8050   25.8190 C   0  0  0  0  0  0  0  0  0  0  0  0
   43.1460   37.2210   27.6710 O   0  0  0  0  0  0  0  0  0  0  0  0
   41.6150   35.8330   22.9870 C   0  0  0  0  0  0  0  0  0  0  0  0
   39.0070   34.8710   22.5060 O   0  0  0  0  0  0  0  0  0  0  0  0
   42.8360   35.7110   24.9600 C   0  0  0  0  0  0  0  0  0  0  0  0
   41.8370   34.6490   28.2260 C   0  0  0  0  0  0  0  0  0  0  0  0
   41.1610   38.2800   26.9140 O   0  0  0  0  0  0  0  0  0  0  0  0
   39.8680   34.1070   26.8970 N   0  0  0  0  0  0  0  0  0  0  0  0
   38.8270   36.8480   21.5620 O   0  0  0  0  0  0  0  0  0  0  0  0
   39.2750   36.5010   25.5550 S   0  0  0  0  0  0  0  0  0  0  0  0
   41.8700   37.1390   27.3650 C   0  0  0  0  0  0  0  0  0  0  0  0
   41.0190   35.9700   21.5530 C   0  0  0  0  0  0  0  0  0  0  0  0
   41.3020   35.7930   27.4250 N   0  0  0  0  0  0  0  0  0  0  0  0
   40.5310   33.8020   28.5130 C   0  0  0  0  0  0  0  0  0  0  0  0
   41.6600   36.8420   24.9600 N   0  0  0  0  0  0  0  0  0  0  0  0
   41.4620   37.1980   23.7160 C   0  0  0  0  0  0  0  0  0  0  0  0
   43.0960   35.5180   23.4340 C   0  0  0  0  0  0  0  0  0  0  0  0
   39.4910   35.8500   21.9420 C   0  0  0  0  0  0  0  0  0  0  0  0
  1 12  1  0
  1 10  1  0
  1 15  1  0
  2 18  2  0
  3 17  1  0
  3  9  1  0
  5 14  1  0
  5 19  1  0
  5 18  1  0
  7 17  1  0
  8 16  1  0
  9 13  1  0
 10 16  1  0
 11 20  2  0
 12  3  1  0
 13 15  1  0
 13  4  2  0
 14 20  1  0
 15  8  1  0
 18 17  1  0
 19  7  1  0
 20  6  1  0
M  END
$$$$

     RDKit          3D

 13 14  0  0  0  0  0  0  0  0999 V2000
   40.4940   34.4270   28.6860 C   0  0  0  0  0  0  0  0  0  0  0  0
   39.9150   35.1090   25.1120 O   0  0  0  0  0  0  0  0  0  0  0  0
   43.6200   35.1930   26.7920 C   0  0  0  0  0  0  0  0  0  0  0  0
   41.2300   34.7040   27.4060 N   0  0  0  0  0  0  0  0  0  0  0  0
   42.3030   35.9070   23.3670 C   0  0  0  0  0  0  0  0  0  0  0  0
   43.4140   35.1270   25.2980 O   0  0  0  0  0  0  0  0  0  0  0  0
   42.0770   35.2810   24.7440 C   0  0  0  0  0  0  0  0  0  0  0  0
   40.9610   35.9730   25.4880 C   0  0  0  0  0  0  0  0  0  0  0  0
   42.4250   35.4200   27.7200 C   0  0  0  0  0  0  0  0  0  0  0  0
   40.9220   37.2420   27.5540 O   0  0  0  0  0  0  0  0  0  0  0  0
   41.1140   36.0110   27.0080 C   0  0  0  0  0  0  0  0  0  0  0  0
   44.8270   35.0810   27.3130 N   0  0  0  0  0  0  0  0  0  0  0  0
   41.0770   36.5290   22.9720 O   0  0  0  0  0  0  0  0  0  0  0  0
  3 12  2  0
  4  9  1  0
  4  1  1  0
  6  3  1  0
  7  5  1  0
  7  6  1  0
  7  8  1  0
  8  2  1  0
  8 11  1  0
  9  3  1  0
 11  4  1  0
 11 10  1  0
 11  9  1  0
 13  5  1  0
M  END
$$$$

     RDKit          3D

 20 22  0  0  0  0  0  0  0  0999 V2000
   40.2190   36.5000   22.4380 N   0  0  0  0  0  0  0  0  0  0  0  0
   42.4860   36.9430   24.9990 C   0  0  0  0  0  0  0  0  0  0  0  0
   41.1640   36.2230   27.3300 C   0  0  0  0  0  0  0  0  0  0  0  0
   39.7320   37.5690   25.4640 C   0  0  0  0  0  0  0  0  0  0  0  0
   40.1630   35.9560   21.1090 C   0  0  0  0  0  0  0  0  0  0  0  0
   40.8510   35.5130   23.2970 C   0  0  0  0  0  0  0  0  0  0  0  0
   42.1070   35.5840   28.1830 C   0  0  0  0  0  0  0  0  0  0  0  0
   40.6190   33.7280   28.3500 C   0  0  0  0  0  0  0  0  0  0  0  0
   40.1480   35.4730   26.7290 C   0  0  0  0  0  0  0  0  0  0  0  0
   39.0900   34.2770   24.2250 O   0  0  0  0  0  0  0  0  0  0  0  0
   41.4150   37.5260   27.0060 N   0  0  0  0  0  0  0  0  0  0  0  0
   41.2530   37.7170   25.5950 C   0  0  0  0  0  0  0  0  0  0  0  0
   39.7980   34.2810   27.3680 C   0  0  0  0  0  0  0  0  0  0  0  0
   41.8290   34.3340   28.7000 C   0  0  0  0  0  0  0  0  0  0  0  0
   40.8960   38.6390   27.8490 C   0  0  0  0  0  0  0  0  0  0  0  0
   42.5670   34.4660   24.5630 O   0  0  0  0  0  0  0  0  0  0  0  0
   39.7310   36.0700   25.5270 N   0  0  0  0  0  0  0  0  0  0  0  0
   42.3200   35.7090   23.9750 C   0  0  0  0  0  0  0  0  0  0  0  0
   39.8300   35.2410   24.4080 C   0  0  0  0  0  0  0  0  0  0  0  0
   39.1930   38.0980   24.1320 C   0  0  0  0  0  0  0  0  0  0  0  0
  3  7  1  0
  4 20  1  0
  4 17  1  0
  4 12  1  0
  5  1  1  0
  6  1  1  0
  6 18  1  0
  6 19  1  0
  7 14  2  0
  8 14  1  0
  9  3  2  0
  9 13  1  0
 10 19  2  0
 11  3  1  0
 11 15  1  0
 12  2  1  0
 12 11  1  0
 13  8  2  0
 17  9  1  0
 18 16  1  0
 18  2  1  0
 19 17  1  0
M  END
$$$$

     RDKit          3D

 28 32  0  0  0  0  0  0  0  0999 V2000
   35.8600   30.8710   34.5120 C   0  0  0  0  0  0  0  0  0  0  0  0
   33.7090   33.3630   36.4530 S   0  0  0  0  0  0  0  0  0  0  0  0
   39.4190   32.8870   27.2920 O   0  0  0  0  0  0  0  0  0  0  0  0
   38.5160   33.5340   28.1820 C   0  0  0  0  0  0  0  0  0  0  0  0
   37.2930   32.5370   33.4360 C   0  0  0  0  0  0  0  0  0  0  0  0
   40.6350   33.4830   30.3770 C   0  0  0  0  0  0  0  0  0  0  0  0
   35.2090   31.8970   35.1910 C   0  0  0  0  0  0  0  0  0  0  0  0
   38.9480   35.2430   24.3470 C   0  0  0  0  0  0  0  0  0  0  0  0
   39.7480   34.2660   27.9500 C   0  0  0  0  0  0  0  0  0  0  0  0
   41.4140   35.3650   26.3230 C   0  0  0  0  0  0  0  0  0  0  0  0
   38.2580   32.5890   29.3650 C   0  0  0  0  0  0  0  0  0  0  0  0
   34.0460   31.9150   36.0550 N   0  0  0  0  0  0  0  0  0  0  0  0
   41.9980   34.9180   28.8240 O   0  0  0  0  0  0  0  0  0  0  0  0
   35.6780   33.2820   34.9240 C   0  0  0  0  0  0  0  0  0  0  0  0
   40.1020   36.3270   24.8590 C   0  0  0  0  0  0  0  0  0  0  0  0
   40.5720   36.9480   23.5420 C   0  0  0  0  0  0  0  0  0  0  0  0
   34.8550   34.2430   35.6350 C   0  0  0  0  0  0  0  0  0  0  0  0
   39.2110   33.0420   30.4930 C   0  0  0  0  0  0  0  0  0  0  0  0
   38.4140   32.9440   32.1520 S   0  0  0  0  0  0  0  0  0  0  0  0
   41.6160   37.7220   26.7650 O   0  0  0  0  0  0  0  0  0  0  0  0
   34.9690   35.5640   35.6380 C   0  0  0  0  0  0  0  0  0  0  0  0
   35.1790   29.1400   34.6440 Br  0  0  0  0  0  0  0  0  0  0  0  0
   42.4070   34.8830   27.3710 C   0  0  0  0  0  0  0  0  0  0  0  0
   41.5220   36.7170   25.6530 C   0  0  0  0  0  0  0  0  0  0  0  0
   39.9990   35.1930   26.8370 N   0  0  0  0  0  0  0  0  0  0  0  0
   40.7750   34.1860   29.1470 C   0  0  0  0  0  0  0  0  0  0  0  0
   36.6700   33.5560   34.0850 N   0  0  0  0  0  0  0  0  0  0  0  0
   36.9500   31.2370   33.6740 C   0  0  0  0  0  0  0  0  0  0  0  0
  1 22  1  0
  1  7  1  0
  3  9  1  0
  3  4  1  0
  4 11  1  0
  5 28  1  0
  5 27  2  0
  6 18  1  0
  7 12  2  0
  8 15  1  0
  9 25  1  0
  9  4  1  0
  9 26  1  0
 10 24  1  0
 10 25  1  0
 10 23  1  0
 11 18  1  0
 12  2  1  0
 13 26  1  0
 14  7  1  0
 14 17  2  0
 15 24  1  0
 16 15  1  0
 17 21  1  0
 17  2  1  0
 18 19  1  0
 19  5  1  0
 23 13  1  0
 24 20  1  0
 26  6  1  0
 27 14  1  0
 28  1  2  0
M  END
$$$$

     RDKit          3D

  8  7  0  0  0  0  0  0  0  0999 V2000
   42.3000   36.1010   28.0250 C   0  0  0  0  0  0  0  0  0  0  0  0
   43.3390   36.4130   25.2510 C   0  0  0  0  0  0  0  0  0  0  0  0
   43.4010   36.0290   26.7930 C   0  0  0  0  0  0  0  0  0  0  0  0
   42.2770   37.5350   28.2810 O   0  0  0  0  0  0  0  0  0  0  0  0
   42.2850   34.6090   28.4810 C   0  0  0  0  0  0  0  0  0  0  0  0
   44.0340   34.6120   26.8810 O   0  0  0  0  0  0  0  0  0  0  0  0
   42.3220   37.5430   25.6430 C   0  0  0  0  0  0  0  0  0  0  0  0
   43.1430   36.3720   23.7010 O   0  0  0  0  0  0  0  0  0  0  0  0
  1  4  1  0
  1  5  1  0
  2  7  1  0
  2  3  1  0
  3  6  1  0
  3  1  1  0
  8  2  1  0
M  END
$$$$

     RDKit          3D

  9  9  0  0  0  0  0  0  0  0999 V2000
   40.8760   33.9820   28.5240 C   0  0  0  0  0  0  0  0  0  0  0  0
   44.1080   38.1310   27.2660 O   0  0  0  0  0  0  0  0  0  0  0  0
   44.0450   36.1400   25.5110 C   0  0  0  0  0  0  0  0  0  0  0  0
   41.7410   34.4980   27.4580 N   0  0  0  0  0  0  0  0  0  0  0  0
   42.8970   36.2020   26.3720 C   0  0  0  0  0  0  0  0  0  0  0  0
   42.6520   35.6060   27.7620 C   0  0  0  0  0  0  0  0  0  0  0  0
   43.5430   37.5030   26.1250 C   0  0  0  0  0  0  0  0  0  0  0  0
   45.0030   35.2210   25.6460 O   0  0  0  0  0  0  0  0  0  0  0  0
   43.9870   36.3190   24.1680 O   0  0  0  0  0  0  0  0  0  0  0  0
  3  8  1  0
  3  7  1  0
  3  5  1  0
  4  6  1  0
  4  1  1  0
  5  6  1  0
  7  5  1  0
  7  2  1  0
  9  3  1  0
M  END
$$$$

     RDKit          3D

 12 11  0  0  0  0  0  0  0  0999 V2000
   43.1200   36.2850   26.9010 O   0  0  0  0  0  0  0  0  0  0  0  0
   43.6540   35.3470   23.6310 N   0  0  0  0  0  0  0  0  0  0  0  0
   42.9880   36.5990   24.1180 C   0  0  0  0  0  0  0  0  0  0  0  0
   40.5850   35.8250   23.5420 C   0  0  0  0  0  0  0  0  0  0  0  0
   39.4170   35.3470   23.7350 O   0  0  0  0  0  0  0  0  0  0  0  0
   40.3180   34.9710   26.3450 O   0  0  0  0  0  0  0  0  0  0  0  0
   41.8330   36.7520   26.9670 C   0  0  0  0  0  0  0  0  0  0  0  0
   40.9140   36.2040   25.9070 C   0  0  0  0  0  0  0  0  0  0  0  0
   44.0880   35.8910   26.3430 C   0  0  0  0  0  0  0  0  0  0  0  0
   41.5790   36.2400   24.5790 C   0  0  0  0  0  0  0  0  0  0  0  0
   45.0260   36.1970   25.7960 O   0  0  0  0  0  0  0  0  0  0  0  0
   41.0990   35.9990   22.3950 O   0  0  0  0  0  0  0  0  0  0  0  0
  1  7  1  0
  2  3  1  0
  4  5  1  0
  4 10  1  0
  8  6  1  0
  8  7  1  0
  9  1  1  0
 10  3  1  0
 10  8  1  0
 11  9  2  0
 12  4  2  0
M  END
$$$$

     RDKit          3D

 17 17  0  0  0  0  0  0  0  0999 V2000
   39.1350   34.2900   23.7190 O   0  0  0  0  0  0  0  0  0  0  0  0
   41.5530   38.2440   23.5760 C   0  0  0  0  0  0  0  0  0  0  0  0
   41.9480   35.3430   25.8720 C   0  0  0  0  0  0  0  0  0  0  0  0
   43.2570   37.3350   25.4160 C   0  0  0  0  0  0  0  0  0  0  0  0
   38.8650   37.6230   25.1420 O   0  0  0  0  0  0  0  0  0  0  0  0
   39.4580   35.7680   24.0600 C   0  0  0  0  0  0  0  0  0  0  0  0
   40.3930   36.1990   22.6390 C   0  0  0  0  0  0  0  0  0  0  0  0
   41.1070   37.0470   24.3680 C   0  0  0  0  0  0  0  0  0  0  0  0
   40.1860   35.5680   26.3150 S   0  0  0  0  0  0  0  0  0  0  0  0
   41.8010   35.7160   24.5870 C   0  0  0  0  0  0  0  0  0  0  0  0
   42.9760   38.4320   26.0750 C   0  0  0  0  0  0  0  0  0  0  0  0
   42.4550   37.6090   22.5660 O   0  0  0  0  0  0  0  0  0  0  0  0
   43.0350   36.2540   27.7860 C   0  0  0  0  0  0  0  0  0  0  0  0
   44.1460   38.7160   26.9190 O   0  0  0  0  0  0  0  0  0  0  0  0
   42.0150   35.8730   28.2960 O   0  0  0  0  0  0  0  0  0  0  0  0
   39.7440   36.7770   24.9320 C   0  0  0  0  0  0  0  0  0  0  0  0
   43.1760   36.0700   26.3000 C   0  0  0  0  0  0  0  0  0  0  0  0
  1  6  1  0
  3 17  1  0
  3  9  1  0
  4 11  1  0
  6  7  1  0
  6 16  1  0
  8  2  1  0
  8 10  1  0
  8 16  1  0
 10  3  1  0
 11 14  1  0
 12  2  1  0
 13 15  2  0
 16  5  1  0
 16  9  1  0
 17  4  1  0
 17 13  1  0
M  END
$$$$

     RDKit          3D

 30 31  0  0  0  0  0  0  0  0999 V2000
   43.4930   39.6790   24.4950 C   0  0  0  0  0  0  0  0  0  0  0  0
   39.8660   33.7050   28.7650 C   0  0  0  0  0  0  0  0  0  0  0  0
   41.3440   36.6620   24.3980 C   0  0  0  0  0  0  0  0  0  0  0  0
   38.1870   32.2350   32.5530 C   0  0  0  0  0  0  0  0  0  0  0  0
   39.8080   37.5310   27.7470 O   0  0  0  0  0  0  0  0  0  0  0  0
   40.2060   32.8000   27.9680 O   0  0  0  0  0  0  0  0  0  0  0  0
   34.6440   31.6250   30.2600 O   0  0  0  0  0  0  0  0  0  0  0  0
   36.9340   30.2630   30.6350 O   0  0  0  0  0  0  0  0  0  0  0  0
   41.5440   39.5620   26.7940 C   0  0  0  0  0  0  0  0  0  0  0  0
   39.9720   35.2180   28.5760 C   0  0  0  0  0  0  0  0  0  0  0  0
   34.7340   32.7870   33.2760 C   0  0  0  0  0  0  0  0  0  0  0  0
   41.0840   35.2330   23.9400 C   0  0  0  0  0  0  0  0  0  0  0  0
   34.0850   33.7930   33.9750 C   0  0  0  0  0  0  0  0  0  0  0  0
   41.3040   35.9400   26.8470 C   0  0  0  0  0  0  0  0  0  0  0  0
   39.4580   33.1920   30.1340 C   0  0  0  0  0  0  0  0  0  0  0  0
   34.6400   35.3370   32.2290 C   0  0  0  0  0  0  0  0  0  0  0  0
   42.1290   39.9440   27.9960 N   0  0  0  0  0  0  0  0  0  0  0  0
   39.8650   34.7830   24.3940 O   0  0  0  0  0  0  0  0  0  0  0  0
   37.4280   32.3930   31.2280 N   0  0  0  0  0  0  0  0  0  0  0  0
   41.9660   38.2530   26.0290 C   0  0  0  0  0  0  0  0  0  0  0  0
   40.2960   36.2400   27.7600 C   0  0  0  0  0  0  0  0  0  0  0  0
   42.5950   37.2880   24.0960 O   0  0  0  0  0  0  0  0  0  0  0  0
   37.9420   33.1090   30.2390 C   0  0  0  0  0  0  0  0  0  0  0  0
   35.4030   33.0960   32.1360 C   0  0  0  0  0  0  0  0  0  0  0  0
   35.9800   31.7500   31.0990 S   0  0  0  0  0  0  0  0  0  0  0  0
   41.4750   36.8710   25.8380 N   0  0  0  0  0  0  0  0  0  0  0  0
   35.4400   34.3560   31.6370 C   0  0  0  0  0  0  0  0  0  0  0  0
   34.0520   35.0700   33.4330 C   0  0  0  0  0  0  0  0  0  0  0  0
   42.6830   38.4550   24.7200 C   0  0  0  0  0  0  0  0  0  0  0  0
   42.1440   34.9290   27.0480 O   0  0  0  0  0  0  0  0  0  0  0  0
  2 15  1  0
  3 12  1  0
  3 26  1  0
  6  2  2  0
  7 25  2  0
  8 25  2  0
  9 17  1  0
 10  2  1  0
 11 13  1  0
 12 18  1  0
 14 30  2  0
 14 21  1  0
 15 23  1  0
 16 28  1  0
 19  4  1  0
 20  9  1  0
 21  5  1  0
 21 10  1  0
 22  3  1  0
 22 29  1  0
 23 19  1  0
 24 11  2  0
 25 19  1  0
 25 24  1  0
 26 20  1  0
 26 14  1  0
 27 24  1  0
 27 16  2  0
 28 13  2  0
 29  1  1  0
 29 20  1  0
M  END
$$$$

     RDKit          3D

  9  9  0  0  0  0  0  0  0  0999 V2000
   42.9220   35.5760   27.7250 C   0  0  0  0  0  0  0  0  0  0  0  0
   43.1730   37.0770   27.7040 C   0  0  0  0  0  0  0  0  0  0  0  0
   41.8770   36.5900   24.0310 S   0  0  0  0  0  0  0  0  0  0  0  0
   42.4460   37.6920   26.7690 N   0  0  0  0  0  0  0  0  0  0  0  0
   40.3040   35.5350   24.2250 C   0  0  0  0  0  0  0  0  0  0  0  0
   42.4750   36.7530   25.5660 C   0  0  0  0  0  0  0  0  0  0  0  0
   42.7580   35.3560   26.1800 C   0  0  0  0  0  0  0  0  0  0  0  0
   43.9850   37.6750   28.3860 O   0  0  0  0  0  0  0  0  0  0  0  0
   41.6770   35.2990   28.5180 N   0  0  0  0  0  0  0  0  0  0  0  0
  1  9  1  0
  2  1  1  0
  2  8  2  0
  3  5  1  0
  4  2  1  0
  6  3  1  0
  6  7  1  0
  6  4  1  0
  7  1  1  0
M  END
$$$$

     RDKit          3D

  7  7  0  0  0  0  0  0  0  0999 V2000
   43.3240   39.0900   27.3670 C   0  0  0  0  0  0  0  0  0  0  0  0
   41.2100   35.2840   26.3840 O   0  0  0  0  0  0  0  0  0  0  0  0
   43.9490   37.0400   25.7970 C   0  0  0  0  0  0  0  0  0  0  0  0
   43.2670   37.6970   27.0350 C   0  0  0  0  0  0  0  0  0  0  0  0
   42.3930   36.8630   27.6330 N   0  0  0  0  0  0  0  0  0  0  0  0
   43.4740   35.6190   26.0800 N   0  0  0  0  0  0  0  0  0  0  0  0
   42.2350   35.7230   26.7610 C   0  0  0  0  0  0  0  0  0  0  0  0
  2  7  2  0
  3  6  1  0
  3  4  1  0
  4  1  1  0
  4  5  1  0
  6  7  1  0
  7  5  1  0
M  END
$$$$

     RDKit          3D

 14 14  0  0  0  0  0  0  0  0999 V2000
   41.4110   37.5460   27.9640 C   0  0  0  0  0  0  0  0  0  0  0  0
   43.9700   39.4780   28.1460 O   0  0  0  0  0  0  0  0  0  0  0  0
   40.0220   33.9420   28.4160 C   0  0  0  0  0  0  0  0  0  0  0  0
   42.4960   37.4630   27.1230 N   0  0  0  0  0  0  0  0  0  0  0  0
   44.8680   35.9080   26.0290 O   0  0  0  0  0  0  0  0  0  0  0  0
   45.9720   36.2910   27.9540 O   0  0  0  0  0  0  0  0  0  0  0  0
   40.9150   39.0810   27.9350 C   0  0  0  0  0  0  0  0  0  0  0  0
   42.9020   34.2640   27.6680 N   0  0  0  0  0  0  0  0  0  0  0  0
   43.7460   37.0260   27.7070 C   0  0  0  0  0  0  0  0  0  0  0  0
   40.0620   36.9370   27.7580 C   0  0  0  0  0  0  0  0  0  0  0  0
   41.0700   35.9750   27.0180 C   0  0  0  0  0  0  0  0  0  0  0  0
   41.5540   34.8070   28.3490 S   0  0  0  0  0  0  0  0  0  0  0  0
   44.0150   38.0890   28.5590 N   0  0  0  0  0  0  0  0  0  0  0  0
   44.9780   36.5410   27.1760 C   0  0  0  0  0  0  0  0  0  0  0  0
  1  7  1  0
  2 13  1  0
  4  1  1  0
  5 14  2  0
  8 12  1  0
  9  4  1  0
  9 13  1  0
 10  1  1  0
 11 10  1  0
 11  1  1  0
 11 12  1  0
 12  3  1  0
 14  9  1  0
 14  6  1  0
M  END
$$$$

     RDKit          3D

 10  9  0  0  0  0  0  0  0  0999 V2000
   43.5850   36.1580   22.8460 O   0  0  0  0  0  0  0  0  0  0  0  0
   41.7970   35.7140   24.8170 C   0  0  0  0  0  0  0  0  0  0  0  0
   42.6250   38.4930   27.2360 C   0  0  0  0  0  0  0  0  0  0  0  0
   42.4550   35.6120   23.4460 C   0  0  0  0  0  0  0  0  0  0  0  0
   42.5800   36.3200   25.9510 C   0  0  0  0  0  0  0  0  0  0  0  0
   41.5050   35.3270   22.5140 C   0  0  0  0  0  0  0  0  0  0  0  0
   43.8550   36.3290   25.2640 O   0  0  0  0  0  0  0  0  0  0  0  0
   41.7900   37.5490   26.4010 C   0  0  0  0  0  0  0  0  0  0  0  0
   40.7240   35.2440   24.9830 O   0  0  0  0  0  0  0  0  0  0  0  0
   42.4090   38.3490   28.6350 O   0  0  0  0  0  0  0  0  0  0  0  0
  1  4  1  0
  2  9  2  0
  2  5  1  0
  3 10  1  0
  4  2  1  0
  5  7  1  0
  5  8  1  0
  6  4  2  0
  8  3  1  0
M  END
$$$$
