
     RDKit          3D

 17 18  0  0  0  0  0  0  0  0999 V2000
   40.1180   42.5740   28.9730 C   0  0  0  0  0  0  0  0  0  0  0  0
   42.0560   43.3740   28.1120 O   0  0  0  0  0  0  0  0  0  0  0  0
   42.8320   43.3400   29.4210 C   0  0  0  0  0  0  0  0  0  0  0  0
   44.1960   39.4440   27.3140 O   0  0  0  0  0  0  0  0  0  0  0  0
   40.9740   40.4780   28.5260 C   0  0  0  0  0  0  0  0  0  0  0  0
   42.6460   40.7980   28.1380 O   0  0  0  0  0  0  0  0  0  0  0  0
   42.1380   43.2550   31.8410 N   0  0  0  0  0  0  0  0  0  0  0  0
   40.1920   43.1410   26.6830 C   0  0  0  0  0  0  0  0  0  0  0  0
   43.8690   40.5860   27.3570 C   0  0  0  0  0  0  0  0  0  0  0  0
   44.4310   41.7650   27.0970 C   0  0  0  0  0  0  0  0  0  0  0  0
   41.0500   42.4820   27.9660 C   0  0  0  0  0  0  0  0  0  0  0  0
   38.0810   43.0800   27.8240 C   0  0  0  0  0  0  0  0  0  0  0  0
   38.8850   42.2820   28.7970 N   0  0  0  0  0  0  0  0  0  0  0  0
   41.9530   42.9620   30.5630 C   0  0  0  0  0  0  0  0  0  0  0  0
   38.8510   43.8390   26.6340 C   0  0  0  0  0  0  0  0  0  0  0  0
   40.8160   40.9620   29.8220 C   0  0  0  0  0  0  0  0  0  0  0  0
   40.7680   42.2640   30.1930 C   0  0  0  0  0  0  0  0  0  0  0  0
  1 13  1  0
  1 17  1  0
  2  3  1  0
  3 14  1  0
  4  9  2  0
  5 16  1  0
  6  5  1  0
  9  6  1  0
 10  9  1  0
 11  8  1  0
 11  2  1  0
 11  1  1  0
 12 13  1  0
 14  7  2  0
 15  8  1  0
 15 12  1  0
 17 16  1  0
 17 14  1  0
M  END
$$$$

     RDKit          3D

  8  8  0  0  0  0  0  0  0  0999 V2000
   39.6260   40.7000   27.8620 C   0  0  0  0  0  0  0  0  0  0  0  0
   39.1220   41.4280   28.9330 C   0  0  0  0  0  0  0  0  0  0  0  0
   43.7620   41.2100   28.3150 Br  0  0  0  0  0  0  0  0  0  0  0  0
   39.9830   41.9310   29.8860 C   0  0  0  0  0  0  0  0  0  0  0  0
   41.5010   39.8070   26.6570 N   0  0  0  0  0  0  0  0  0  0  0  0
   41.0140   40.5310   27.7140 C   0  0  0  0  0  0  0  0  0  0  0  0
   41.8850   41.1470   28.6630 C   0  0  0  0  0  0  0  0  0  0  0  0
   41.3490   41.7580   29.7880 C   0  0  0  0  0  0  0  0  0  0  0  0
  1  2  1  0
  2  4  2  0
  3  7  1  0
  5  6  1  0
  6  1  2  0
  6  7  1  0
  7  8  2  0
  8  4  1  0
M  END
$$$$

     RDKit          3D

 11 10  0  0  0  0  0  0  0  0999 V2000
   42.8220   42.6940   28.8600 N   0  0  0  0  0  0  0  0  0  0  0  0
   42.8670   41.2740   28.7900 C   0  0  0  0  0  0  0  0  0  0  0  0
   43.7520   40.2720   28.2110 C   0  0  0  0  0  0  0  0  0  0  0  0
   41.9900   44.3100   30.5320 C   0  0  0  0  0  0  0  0  0  0  0  0
   42.8570   40.1280   30.6520 O   0  0  0  0  0  0  0  0  0  0  0  0
   43.4910   38.8500   28.3860 C   0  0  0  0  0  0  0  0  0  0  0  0
   42.6510   43.6380   28.0220 C   0  0  0  0  0  0  0  0  0  0  0  0
   40.8690   41.2220   29.9170 O   0  0  0  0  0  0  0  0  0  0  0  0
   42.5970   44.7610   27.4310 C   0  0  0  0  0  0  0  0  0  0  0  0
   43.0260   43.3000   30.1470 C   0  0  0  0  0  0  0  0  0  0  0  0
   42.0440   40.7850   29.9350 C   0  0  0  0  0  0  0  0  0  0  0  0
  1 10  1  0
  2  3  1  0
  2  1  1  0
  2 11  1  0
  3  6  1  0
  7  1  1  0
  8 11  2  0
  9  7  3  0
 10  4  1  0
 11  5  1  0
M  END
$$$$

     RDKit          3D

 14 14  0  0  0  0  0  0  0  0999 V2000
   39.1380   40.0210   25.8470 C   0  0  0  0  0  0  0  0  0  0  0  0
   40.5470   38.9490   29.0650 C   0  0  0  0  0  0  0  0  0  0  0  0
   43.3800   40.6820   31.3410 O   0  0  0  0  0  0  0  0  0  0  0  0
   40.3580   37.8610   29.9440 C   0  0  0  0  0  0  0  0  0  0  0  0
   41.8350   41.8560   32.4400 O   0  0  0  0  0  0  0  0  0  0  0  0
   40.9780   40.2040   29.8270 C   0  0  0  0  0  0  0  0  0  0  0  0
   40.2090   41.6960   29.2730 S   0  0  0  0  0  0  0  0  0  0  0  0
   41.1050   39.8550   31.2620 C   0  0  0  0  0  0  0  0  0  0  0  0
   39.2770   40.8800   27.9870 C   0  0  0  0  0  0  0  0  0  0  0  0
   42.1680   40.8580   31.7510 C   0  0  0  0  0  0  0  0  0  0  0  0
   39.9010   40.0550   27.0080 N   0  0  0  0  0  0  0  0  0  0  0  0
   37.7760   42.4060   27.8930 C   0  0  0  0  0  0  0  0  0  0  0  0
   38.0080   40.7240   26.0670 C   0  0  0  0  0  0  0  0  0  0  0  0
   38.3170   41.5250   27.3660 C   0  0  0  0  0  0  0  0  0  0  0  0
  1 13  1  0
  1 11  1  0
  2  4  1  0
  3 10  2  0
  6  2  1  0
  6  8  1  0
  7  6  1  0
  8 10  1  0
  9  7  1  0
 10  5  1  0
 11  9  1  0
 13 14  1  0
 14 12  2  0
 14  9  1  0
M  END
$$$$

     RDKit          3D

  8  8  0  0  0  0  0  0  0  0999 V2000
   40.6690   41.4900   31.2680 O   0  0  0  0  0  0  0  0  0  0  0  0
   39.8320   41.3520   30.3880 C   0  0  0  0  0  0  0  0  0  0  0  0
   40.6020   40.4310   28.2590 N   0  0  0  0  0  0  0  0  0  0  0  0
   42.1120   40.5360   28.0510 C   0  0  0  0  0  0  0  0  0  0  0  0
   42.9530   39.6790   28.0860 O   0  0  0  0  0  0  0  0  0  0  0  0
   42.3550   41.9920   28.4390 C   0  0  0  0  0  0  0  0  0  0  0  0
   41.0210   42.7100   28.6600 C   0  0  0  0  0  0  0  0  0  0  0  0
   40.0030   41.5870   28.9240 C   0  0  0  0  0  0  0  0  0  0  0  0
  2  1  2  0
  3  8  1  0
  4  5  2  0
  4  3  1  0
  4  6  1  0
  6  7  1  0
  7  8  1  0
  8  2  1  0
M  END
$$$$

     RDKit          3D

  9  8  0  0  0  0  0  0  0  0999 V2000
   42.5990   39.7710   28.6170 C   0  0  0  0  0  0  0  0  0  0  0  0
   42.2780   39.4150   27.1440 C   0  0  0  0  0  0  0  0  0  0  0  0
   40.6900   41.9330   30.1690 C   0  0  0  0  0  0  0  0  0  0  0  0
   43.8120   40.7090   28.6800 C   0  0  0  0  0  0  0  0  0  0  0  0
   41.3760   40.3270   29.3860 C   0  0  0  0  0  0  0  0  0  0  0  0
   40.5230   41.3570   28.9830 N   0  0  0  0  0  0  0  0  0  0  0  0
   39.6990   41.8990   27.8360 C   0  0  0  0  0  0  0  0  0  0  0  0
   40.2710   41.3630   31.2270 O   0  0  0  0  0  0  0  0  0  0  0  0
   40.3000   43.3040   30.0380 O   0  0  0  0  0  0  0  0  0  0  0  0
  1  4  1  0
  1  5  1  0
  2  1  1  0
  3  8  1  0
  6  5  1  0
  6  3  1  0
  7  6  1  0
  9  3  1  0
M  END
$$$$

     RDKit          3D

 19 22  0  0  0  0  0  0  0  0999 V2000
   40.5060   40.6380   26.1490 C   0  0  0  0  0  0  0  0  0  0  0  0
   41.0110   42.5110   28.4580 N   0  0  0  0  0  0  0  0  0  0  0  0
   39.0460   41.0590   26.2970 C   0  0  0  0  0  0  0  0  0  0  0  0
   40.9170   43.3860   32.0120 C   0  0  0  0  0  0  0  0  0  0  0  0
   40.9440   40.1730   27.4760 N   0  0  0  0  0  0  0  0  0  0  0  0
   40.2400   40.8440   29.6090 C   0  0  0  0  0  0  0  0  0  0  0  0
   40.7250   44.1450   33.0730 O   0  0  0  0  0  0  0  0  0  0  0  0
   35.4500   39.4190   23.5500 C   0  0  0  0  0  0  0  0  0  0  0  0
   41.0990   43.8860   30.6700 N   0  0  0  0  0  0  0  0  0  0  0  0
   38.2890   40.2740   25.5200 C   0  0  0  0  0  0  0  0  0  0  0  0
   36.4920   39.6130   24.7690 S   0  0  0  0  0  0  0  0  0  0  0  0
   41.5900   38.8450   29.6900 O   0  0  0  0  0  0  0  0  0  0  0  0
   40.2500   38.3090   29.5250 C   0  0  0  0  0  0  0  0  0  0  0  0
   40.3910   41.8420   30.5110 C   0  0  0  0  0  0  0  0  0  0  0  0
   40.6870   41.1790   28.4810 C   0  0  0  0  0  0  0  0  0  0  0  0
   39.9910   39.4730   30.2100 C   0  0  0  0  0  0  0  0  0  0  0  0
   40.4220   42.1230   31.8670 N   0  0  0  0  0  0  0  0  0  0  0  0
   40.6810   43.0110   29.6610 C   0  0  0  0  0  0  0  0  0  0  0  0
   37.5940   40.8320   24.3380 C   0  0  0  0  0  0  0  0  0  0  0  0
  1  3  1  0
  1  5  1  0
  2 15  2  0
  2 18  2  0
  4  7  2  0
  5 15  1  0
  6 15  1  0
  6 16  1  0
  6 14  1  0
  9  4  1  0
 10  3  1  0
 11  8  1  0
 11 10  1  0
 12 16  1  0
 13 12  1  0
 14 17  2  0
 16 13  1  0
 17  4  1  0
 18 14  1  0
 18  9  1  0
 19 11  1  0
 19 10  1  0
M  END
$$$$

     RDKit          3D

 11 11  0  0  0  0  0  0  0  0999 V2000
   42.7370   42.9380   28.7980 C   0  0  0  0  0  0  0  0  0  0  0  0
   44.1110   39.6400   29.0450 C   0  0  0  0  0  0  0  0  0  0  0  0
   39.4770   39.7670   30.3480 O   0  0  0  0  0  0  0  0  0  0  0  0
   43.1090   40.7970   29.1330 C   0  0  0  0  0  0  0  0  0  0  0  0
   40.8040   41.4290   29.1360 C   0  0  0  0  0  0  0  0  0  0  0  0
   39.4970   41.0980   29.9090 C   0  0  0  0  0  0  0  0  0  0  0  0
   43.2970   44.3590   28.6690 C   0  0  0  0  0  0  0  0  0  0  0  0
   41.7770   40.3590   29.2140 O   0  0  0  0  0  0  0  0  0  0  0  0
   39.3380   42.0410   31.0510 N   0  0  0  0  0  0  0  0  0  0  0  0
   43.2550   41.9270   28.0400 C   0  0  0  0  0  0  0  0  0  0  0  0
   41.5160   42.6590   29.5220 O   0  0  0  0  0  0  0  0  0  0  0  0
  1  7  1  0
  1 11  1  0
  4  2  1  0
  4  8  1  0
  5  8  1  0
  5 11  1  0
  5  6  1  0
  6  3  1  0
  6  9  1  0
 10  1  1  0
 10  4  1  0
M  END
$$$$

     RDKit          3D

 10  9  0  0  0  0  0  0  0  0999 V2000
   43.3460   42.5130   30.9280 P   0  0  0  0  0  0  0  0  0  0  0  0
   44.1850   43.3430   31.7950 O   0  0  0  0  0  0  0  0  0  0  0  0
   43.2950   43.3660   29.6080 O   0  0  0  0  0  0  0  0  0  0  0  0
   41.7700   41.7400   31.4550 S   0  0  0  0  0  0  0  0  0  0  0  0
   39.9590   41.6930   30.0470 C   0  0  0  0  0  0  0  0  0  0  0  0
   44.1300   41.0740   31.0580 O   0  0  0  0  0  0  0  0  0  0  0  0
   41.2840   41.2480   30.1880 O   0  0  0  0  0  0  0  0  0  0  0  0
   39.5320   41.9700   28.6410 C   0  0  0  0  0  0  0  0  0  0  0  0
   41.2490   41.9580   32.5950 O   0  0  0  0  0  0  0  0  0  0  0  0
   39.2570   43.0040   28.2560 O   0  0  0  0  0  0  0  0  0  0  0  0
  1  6  1  0
  1  4  1  0
  1  2  1  0
  3  1  2  0
  4  9  2  0
  5  7  1  0
  7  4  1  0
  8  5  1  0
 10  8  2  0
M  END
$$$$

     RDKit          3D

  8  7  0  0  0  0  0  0  0  0999 V2000
   41.3630   43.7130   26.9150 C   0  0  0  0  0  0  0  0  0  0  0  0
   41.0990   41.1090   26.8670 C   0  0  0  0  0  0  0  0  0  0  0  0
   40.9170   42.4350   27.5560 C   0  0  0  0  0  0  0  0  0  0  0  0
   41.7230   39.9870   27.6740 C   0  0  0  0  0  0  0  0  0  0  0  0
   40.3520   42.4990   28.6520 O   0  0  0  0  0  0  0  0  0  0  0  0
   41.9940   40.1060   29.1280 N   0  0  0  0  0  0  0  0  0  0  0  0
   40.4470   44.7160   27.4470 O   0  0  0  0  0  0  0  0  0  0  0  0
   42.6960   41.3560   29.4230 C   0  0  0  0  0  0  0  0  0  0  0  0
  1  7  1  0
  1  3  1  0
  2  3  1  0
  2  4  2  3
  3  5  2  0
  4  6  1  0
  6  8  1  0
M  END
$$$$

     RDKit          3D

  9  9  0  0  0  0  0  0  0  0999 V2000
   43.1550   39.0800   28.6330 O   0  0  0  0  0  0  0  0  0  0  0  0
   40.8930   39.3890   29.4900 C   0  0  0  0  0  0  0  0  0  0  0  0
   42.6560   43.7500   29.2650 C   0  0  0  0  0  0  0  0  0  0  0  0
   41.4020   42.0960   29.4430 C   0  0  0  0  0  0  0  0  0  0  0  0
   40.1350   41.6190   29.7810 C   0  0  0  0  0  0  0  0  0  0  0  0
   42.4590   41.1970   29.1220 N   0  0  0  0  0  0  0  0  0  0  0  0
   41.5400   43.3280   29.3870 C   0  0  0  0  0  0  0  0  0  0  0  0
   39.8830   40.2470   29.8440 C   0  0  0  0  0  0  0  0  0  0  0  0
   42.1700   39.8680   28.9810 C   0  0  0  0  0  0  0  0  0  0  0  0
  1  9  2  0
  2  8  2  0
  3  7  2  0
  4  5  1  0
  5  8  1  0
  6  4  2  0
  7  4  1  0
  9  6  1  0
  9  2  1  0
M  END
$$$$

     RDKit          3D

 15 16  0  0  0  0  0  0  0  0999 V2000
   41.7220   38.6510   29.4340 C   0  0  0  0  0  0  0  0  0  0  0  0
   40.2150   41.9270   29.4550 C   0  0  0  0  0  0  0  0  0  0  0  0
   40.4000   43.7380   25.5130 C   0  0  0  0  0  0  0  0  0  0  0  0
   41.4740   41.0030   25.3200 C   0  0  0  0  0  0  0  0  0  0  0  0
   41.4420   39.9080   28.5930 C   0  0  0  0  0  0  0  0  0  0  0  0
   40.8330   43.3200   29.4710 C   0  0  0  0  0  0  0  0  0  0  0  0
   41.2790   40.9600   29.5850 N   0  0  0  0  0  0  0  0  0  0  0  0
   41.0040   41.4290   26.7040 C   0  0  0  0  0  0  0  0  0  0  0  0
   40.9150   43.1140   24.2450 C   0  0  0  0  0  0  0  0  0  0  0  0
   41.8010   41.1260   30.9000 C   0  0  0  0  0  0  0  0  0  0  0  0
   40.4700   40.2670   27.4880 C   0  0  0  0  0  0  0  0  0  0  0  0
   39.2440   44.7050   28.1310 C   0  0  0  0  0  0  0  0  0  0  0  0
   40.5970   43.9740   28.1120 C   0  0  0  0  0  0  0  0  0  0  0  0
   40.6650   42.9720   26.8610 C   0  0  0  0  0  0  0  0  0  0  0  0
   42.0850   42.1860   24.5710 C   0  0  0  0  0  0  0  0  0  0  0  0
  2  6  1  0
  2  7  1  0
  5  1  1  0
  5  7  1  0
  7 10  1  0
  8  4  1  0
  8 14  1  0
  8 11  1  0
  9 15  1  0
  9  3  1  0
 11  5  1  0
 13 12  1  0
 13  6  1  0
 14  3  1  0
 14 13  1  0
 15  4  1  0
M  END
$$$$

     RDKit          3D

  9  9  0  0  0  0  0  0  0  0999 V2000
   42.0660   42.1890   28.0210 C   0  0  0  0  0  0  0  0  0  0  0  0
   41.3960   42.8270   28.9420 C   0  0  0  0  0  0  0  0  0  0  0  0
   41.4610   39.1020   29.4240 C   0  0  0  0  0  0  0  0  0  0  0  0
   40.2630   42.3670   29.5280 N   0  0  0  0  0  0  0  0  0  0  0  0
   39.3610   40.5220   30.4820 O   0  0  0  0  0  0  0  0  0  0  0  0
   41.2280   40.3720   29.0960 C   0  0  0  0  0  0  0  0  0  0  0  0
   40.2280   41.0980   29.7960 C   0  0  0  0  0  0  0  0  0  0  0  0
   41.9940   40.8550   28.0820 N   0  0  0  0  0  0  0  0  0  0  0  0
   41.5730   38.0180   29.7760 N   0  0  0  0  0  0  0  0  0  0  0  0
  1  8  1  0
  1  2  1  0
  2  4  1  0
  3  9  3  0
  4  7  1  0
  6  3  1  0
  6  7  1  0
  7  5  2  0
  8  6  1  0
M  END
$$$$

     RDKit          3D

 10  9  0  0  0  0  0  0  0  0999 V2000
   38.2860   42.7620   28.2640 O   0  0  0  0  0  0  0  0  0  0  0  0
   39.2720   42.3950   27.7280 C   0  0  0  0  0  0  0  0  0  0  0  0
   42.6010   40.6920   28.9760 C   0  0  0  0  0  0  0  0  0  0  0  0
   41.4190   39.7870   28.6890 C   0  0  0  0  0  0  0  0  0  0  0  0
   40.4270   40.5180   27.8220 C   0  0  0  0  0  0  0  0  0  0  0  0
   42.4290   41.5640   30.0940 O   0  0  0  0  0  0  0  0  0  0  0  0
   40.9140   40.6290   26.4410 N   0  0  0  0  0  0  0  0  0  0  0  0
   40.4090   41.8970   28.4980 C   0  0  0  0  0  0  0  0  0  0  0  0
   40.3980   42.7220   29.5890 O   0  0  0  0  0  0  0  0  0  0  0  0
   39.4070   42.5700   26.2820 O   0  0  0  0  0  0  0  0  0  0  0  0
  2  1  1  0
  2  8  1  0
  3  6  1  0
  4  3  1  0
  5  7  1  0
  5  8  1  0
  5  4  1  0
  8  9  1  0
 10  2  2  0
M  END
$$$$

     RDKit          3D

  7  6  0  0  0  0  0  0  0  0999 V2000
   42.5350   41.5950   29.4330 O   0  0  0  0  0  0  0  0  0  0  0  0
   43.8860   40.5880   28.0430 O   0  0  0  0  0  0  0  0  0  0  0  0
   41.4660   40.3850   27.8840 C   0  0  0  0  0  0  0  0  0  0  0  0
   42.7760   40.9050   28.4780 C   0  0  0  0  0  0  0  0  0  0  0  0
   40.5150   41.4370   27.3540 C   0  0  0  0  0  0  0  0  0  0  0  0
   39.2950   42.0610   27.9390 O   0  0  0  0  0  0  0  0  0  0  0  0
   40.2070   39.7150   28.2020 N   0  0  0  0  0  0  0  0  0  0  0  0
  2  4  2  0
  3  7  1  0
  3  4  1  0
  4  1  1  0
  5  3  1  0
  5  6  1  0
M  END
$$$$

     RDKit          3D

 25 28  0  0  0  0  0  0  0  0999 V2000
   38.2050   42.3880   28.0390 S   0  0  0  0  0  0  0  0  0  0  0  0
   34.4250   39.6650   23.8310 N   0  0  0  0  0  0  0  0  0  0  0  0
   40.7380   41.8350   29.1290 C   0  0  0  0  0  0  0  0  0  0  0  0
   36.7020   39.2950   24.1840 N   0  0  0  0  0  0  0  0  0  0  0  0
   38.3060   40.1430   26.9670 C   0  0  0  0  0  0  0  0  0  0  0  0
   40.7590   38.5070   29.6120 C   0  0  0  0  0  0  0  0  0  0  0  0
   43.4210   41.3520   31.4270 C   0  0  0  0  0  0  0  0  0  0  0  0
   35.3960   38.6090   23.8990 C   0  0  0  0  0  0  0  0  0  0  0  0
   37.7350   38.8670   26.4960 N   0  0  0  0  0  0  0  0  0  0  0  0
   42.3370   41.4130   32.4980 C   0  0  0  0  0  0  0  0  0  0  0  0
   36.3580   41.5790   26.0920 C   0  0  0  0  0  0  0  0  0  0  0  0
   43.1000   41.5890   30.0640 C   0  0  0  0  0  0  0  0  0  0  0  0
   36.3160   40.5890   24.8810 C   0  0  0  0  0  0  0  0  0  0  0  0
   41.3830   39.6020   30.2830 C   0  0  0  0  0  0  0  0  0  0  0  0
   40.5550   37.5950   30.6240 N   0  0  0  0  0  0  0  0  0  0  0  0
   41.5300   39.3040   31.6810 C   0  0  0  0  0  0  0  0  0  0  0  0
   42.0400   39.9770   32.7680 C   0  0  0  0  0  0  0  0  0  0  0  0
   41.8740   40.8410   29.5580 C   0  0  0  0  0  0  0  0  0  0  0  0
   37.4960   41.3820   26.9830 C   0  0  0  0  0  0  0  0  0  0  0  0
   35.1690   40.9180   23.9910 C   0  0  0  0  0  0  0  0  0  0  0  0
   39.4370   40.1900   27.7280 N   0  0  0  0  0  0  0  0  0  0  0  0
   35.9480   42.9640   25.9370 C   0  0  0  0  0  0  0  0  0  0  0  0
   40.0770   36.5460   30.4720 N   0  0  0  0  0  0  0  0  0  0  0  0
   39.5760   41.3670   28.3990 C   0  0  0  0  0  0  0  0  0  0  0  0
   41.0160   38.0530   31.8200 C   0  0  0  0  0  0  0  0  0  0  0  0
  1 24  1  0
  2  8  1  0
  2 20  1  0
  4 13  1  0
  5 19  2  0
  5 21  1  0
  6 14  2  0
  6 15  1  0
  7 10  1  0
  8  4  1  0
  9  5  1  0
 10 17  1  0
 11 22  1  0
 11 19  1  0
 12  7  1  0
 13 11  1  0
 14 16  1  0
 15 25  1  0
 16 25  2  0
 16 17  1  0
 18  3  1  0
 18 12  1  0
 18 14  1  0
 19  1  1  0
 20 13  1  0
 21 24  2  0
 23 15  1  0
 24  3  1  0
M  END
$$$$

     RDKit          3D

  9  9  0  0  0  0  0  0  0  0999 V2000
   41.4090   42.2790   29.3120 C   0  0  0  0  0  0  0  0  0  0  0  0
   41.6080   41.1010   30.2290 C   0  0  0  0  0  0  0  0  0  0  0  0
   38.0610   43.2360   26.0610 C   0  0  0  0  0  0  0  0  0  0  0  0
   39.4580   42.2330   27.7790 C   0  0  0  0  0  0  0  0  0  0  0  0
   41.7530   39.5210   28.2670 N   0  0  0  0  0  0  0  0  0  0  0  0
   42.4440   40.0310   29.5130 C   0  0  0  0  0  0  0  0  0  0  0  0
   41.4240   40.6370   27.3220 C   0  0  0  0  0  0  0  0  0  0  0  0
   39.4280   42.6930   26.3230 C   0  0  0  0  0  0  0  0  0  0  0  0
   40.7170   41.6150   28.1590 N   0  0  0  0  0  0  0  0  0  0  0  0
  1  2  1  0
  3  8  1  0
  4  9  1  0
  5  6  1  0
  6  2  1  0
  7  9  1  0
  7  5  1  0
  8  4  1  0
  9  1  1  0
M  END
$$$$

     RDKit          3D

 12 11  0  0  0  0  0  0  0  0999 V2000
   40.2500   41.4510   26.2510 O   0  0  0  0  0  0  0  0  0  0  0  0
   42.2750   41.6410   27.2470 C   0  0  0  0  0  0  0  0  0  0  0  0
   44.0790   45.5930   29.0740 S   0  0  0  0  0  0  0  0  0  0  0  0
   42.8720   42.9260   27.9990 C   0  0  0  0  0  0  0  0  0  0  0  0
   42.4060   43.9700   29.0260 C   0  0  0  0  0  0  0  0  0  0  0  0
   45.3210   41.5250   26.7800 S   0  0  0  0  0  0  0  0  0  0  0  0
   44.5320   42.5730   27.9200 C   0  0  0  0  0  0  0  0  0  0  0  0
   41.3260   42.0690   26.6000 O   0  0  0  0  0  0  0  0  0  0  0  0
   45.3780   43.6950   28.0790 O   0  0  0  0  0  0  0  0  0  0  0  0
   44.0370   46.8690   30.3450 C   0  0  0  0  0  0  0  0  0  0  0  0
   43.1460   44.1290   29.9730 C   0  0  0  0  0  0  0  0  0  0  0  0
   42.2500   40.6990   27.5730 O   0  0  0  0  0  0  0  0  0  0  0  0
  1  8  1  0
  2 12  2  0
  2  4  1  0
  3 11  1  0
  3 10  1  0
  4  5  1  0
  5 11  1  0
  6  7  1  0
  7  4  1  0
  7  9  2  0
  8  2  1  0
M  END
$$$$

     RDKit          3D

  6  5  0  0  0  0  0  0  0  0999 V2000
   42.5980   42.1930   28.5760 O   0  0  0  0  0  0  0  0  0  0  0  0
   42.1530   40.9380   26.9040 C   0  0  0  0  0  0  0  0  0  0  0  0
   43.6530   42.9550   26.9000 O   0  0  0  0  0  0  0  0  0  0  0  0
   44.2830   40.7220   26.7110 O   0  0  0  0  0  0  0  0  0  0  0  0
   42.8610   41.8720   27.0670 C   0  0  0  0  0  0  0  0  0  0  0  0
   41.3230   40.0150   27.2860 C   0  0  0  0  0  0  0  0  0  0  0  0
  2  5  1  0
  2  6  2  0
  3  5  1  0
  4  5  1  0
  5  1  1  0
M  END
$$$$

     RDKit          3D

 13 12  0  0  0  0  0  0  0  0999 V2000
   42.3160   39.6510   29.0350 O   0  0  0  0  0  0  0  0  0  0  0  0
   40.8620   43.0330   32.3530 C   0  0  0  0  0  0  0  0  0  0  0  0
   40.4920   41.9140   28.6960 C   0  0  0  0  0  0  0  0  0  0  0  0
   44.9410   41.5970   31.0110 O   0  0  0  0  0  0  0  0  0  0  0  0
   41.9330   40.6340   30.1360 C   0  0  0  0  0  0  0  0  0  0  0  0
   40.4600   41.1340   30.0070 C   0  0  0  0  0  0  0  0  0  0  0  0
   39.4720   41.5190   26.4180 C   0  0  0  0  0  0  0  0  0  0  0  0
   43.9480   41.7200   31.1950 C   0  0  0  0  0  0  0  0  0  0  0  0
   42.4780   41.7450   31.0990 C   0  0  0  0  0  0  0  0  0  0  0  0
   43.0770   39.9890   27.9140 C   0  0  0  0  0  0  0  0  0  0  0  0
   41.6260   41.7160   32.3770 C   0  0  0  0  0  0  0  0  0  0  0  0
   40.4050   43.1200   28.8600 O   0  0  0  0  0  0  0  0  0  0  0  0
   40.5870   41.3510   27.3400 O   0  0  0  0  0  0  0  0  0  0  0  0
  1  5  1  0
  2 11  1  0
  3 12  2  0
  3  6  1  0
  4  8  1  0
  5  6  1  0
  5  9  1  0
  7 13  1  0
  9  8  1  0
  9 11  1  0
 10  1  1  0
 13  3  1  0
M  END
$$$$
