
     RDKit          3D

 10  9  0  0  0  0  0  0  0  0999 V2000
   37.7460   39.0230   22.7860 C   0  0  0  0  0  0  0  0  0  0  0  0
   38.0710   42.6270   23.9260 O   0  0  0  0  0  0  0  0  0  0  0  0
   37.0110   40.5310   24.7120 C   0  0  0  0  0  0  0  0  0  0  0  0
   36.1630   42.8300   24.4410 O   0  0  0  0  0  0  0  0  0  0  0  0
   37.9670   40.1680   25.7470 O   0  0  0  0  0  0  0  0  0  0  0  0
   36.6030   39.8400   23.3720 C   0  0  0  0  0  0  0  0  0  0  0  0
   37.1620   38.3020   21.6680 O   0  0  0  0  0  0  0  0  0  0  0  0
   36.7720   38.8620   20.5090 C   0  0  0  0  0  0  0  0  0  0  0  0
   37.0950   42.0410   24.3620 C   0  0  0  0  0  0  0  0  0  0  0  0
   36.0700   40.6660   22.2340 O   0  0  0  0  0  0  0  0  0  0  0  0
  1  6  1  0
  2  9  2  0
  3  5  1  0
  6 10  1  0
  6  3  1  0
  7  1  1  0
  8  7  1  0
  9  4  1  0
  9  3  1  0
M  END
$$$$

     RDKit          3D

 22 23  0  0  0  0  0  0  0  0999 V2000
   39.8840   39.6150   23.6790 O   0  0  0  0  0  0  0  0  0  0  0  0
   38.0350   38.5200   23.9230 N   0  0  0  0  0  0  0  0  0  0  0  0
   32.1540   36.3770   22.8070 C   0  0  0  0  0  0  0  0  0  0  0  0
   38.1140   39.3650   26.1630 C   0  0  0  0  0  0  0  0  0  0  0  0
   28.7200   35.7930   25.2090 Br  0  0  0  0  0  0  0  0  0  0  0  0
   38.5600   38.2470   25.2520 C   0  0  0  0  0  0  0  0  0  0  0  0
   33.5940   38.4840   22.9780 N   0  0  0  0  0  0  0  0  0  0  0  0
   34.6350   40.6880   22.9700 C   0  0  0  0  0  0  0  0  0  0  0  0
   35.9990   38.7070   22.1300 C   0  0  0  0  0  0  0  0  0  0  0  0
   38.1340   40.2230   22.1500 C   0  0  0  0  0  0  0  0  0  0  0  0
   34.8030   37.8290   22.4920 C   0  0  0  0  0  0  0  0  0  0  0  0
   38.7500   39.4410   23.2890 C   0  0  0  0  0  0  0  0  0  0  0  0
   31.3140   38.5000   23.5920 C   0  0  0  0  0  0  0  0  0  0  0  0
   32.3820   37.7460   23.1190 C   0  0  0  0  0  0  0  0  0  0  0  0
   31.0170   35.7830   23.3140 C   0  0  0  0  0  0  0  0  0  0  0  0
   33.5500   39.8670   23.1180 C   0  0  0  0  0  0  0  0  0  0  0  0
   32.9330   35.5870   22.0910 O   0  0  0  0  0  0  0  0  0  0  0  0
   35.8450   40.1050   22.6040 C   0  0  0  0  0  0  0  0  0  0  0  0
   30.1610   37.9150   23.9860 C   0  0  0  0  0  0  0  0  0  0  0  0
   36.9640   40.8850   22.7040 N   0  0  0  0  0  0  0  0  0  0  0  0
   30.1000   36.5270   24.0740 C   0  0  0  0  0  0  0  0  0  0  0  0
   37.9280   36.9300   25.6270 C   0  0  0  0  0  0  0  0  0  0  0  0
  2  6  1  0
  3 14  2  0
  3 15  1  0
  6 22  1  0
  6  4  1  0
  7 16  1  0
  7 14  1  0
  8 16  2  0
  9 11  1  0
  9 18  2  0
 10 20  1  0
 10 12  1  0
 11  7  1  0
 12  1  2  0
 12  2  1  0
 13 19  2  0
 14 13  1  0
 15 21  2  0
 17  3  1  0
 18 20  1  0
 18  8  1  0
 19 21  1  0
 21  5  1  0
M  END
$$$$

     RDKit          3D

 14 14  0  0  0  0  0  0  0  0999 V2000
   38.7580   41.2050   21.5000 O   0  0  0  0  0  0  0  0  0  0  0  0
   32.3400   39.6360   20.8270 S   0  0  0  0  0  0  0  0  0  0  0  0
   33.6430   37.5720   22.2620 C   0  0  0  0  0  0  0  0  0  0  0  0
   34.1100   40.0760   22.8480 C   0  0  0  0  0  0  0  0  0  0  0  0
   33.0450   40.6670   21.9210 C   0  0  0  0  0  0  0  0  0  0  0  0
   39.1950   41.0480   24.0000 O   0  0  0  0  0  0  0  0  0  0  0  0
   36.1390   38.1620   22.9380 C   0  0  0  0  0  0  0  0  0  0  0  0
   38.5320   37.9930   23.5030 O   0  0  0  0  0  0  0  0  0  0  0  0
   36.7190   40.8350   23.0920 O   0  0  0  0  0  0  0  0  0  0  0  0
   38.6040   38.8090   22.4770 O   0  0  0  0  0  0  0  0  0  0  0  0
   32.3680   38.1300   21.6540 C   0  0  0  0  0  0  0  0  0  0  0  0
   38.4100   40.4860   22.7810 P   0  0  0  0  0  0  0  0  0  0  0  0
   36.5150   39.3680   23.9490 C   0  0  0  0  0  0  0  0  0  0  0  0
   34.6990   38.6320   22.6250 C   0  0  0  0  0  0  0  0  0  0  0  0
  2 11  1  0
  2  5  1  0
  3 14  1  0
  5  4  2  0
  7 13  1  0
  9 13  1  0
 10 12  1  0
 10  8  1  0
 11  3  1  0
 12  1  2  0
 12  9  1  0
 12  6  1  0
 14  4  1  0
 14  7  1  0
M  END
$$$$

     RDKit          3D

 25 25  0  0  0  0  0  0  0  0999 V2000
   41.1950   40.0760   23.4200 O   0  0  0  0  0  0  0  0  0  0  0  0
   39.0660   37.7680   24.8020 C   0  0  0  0  0  0  0  0  0  0  0  0
   39.6450   42.0080   23.4060 O   0  0  0  0  0  0  0  0  0  0  0  0
   31.4410   38.4660   22.7030 C   0  0  0  0  0  0  0  0  0  0  0  0
   33.5750   37.1450   22.1280 S   0  0  0  0  0  0  0  0  0  0  0  0
   33.2950   36.8660   20.6830 O   0  0  0  0  0  0  0  0  0  0  0  0
   36.1470   40.5020   23.5620 N   0  0  0  0  0  0  0  0  0  0  0  0
   33.4750   41.6160   21.3650 C   0  0  0  0  0  0  0  0  0  0  0  0
   38.6810   39.7800   19.6530 C   0  0  0  0  0  0  0  0  0  0  0  0
   37.4810   39.7010   20.7180 C   0  0  0  0  0  0  0  0  0  0  0  0
   36.7310   40.7310   22.5910 C   0  0  0  0  0  0  0  0  0  0  0  0
   36.1600   40.0100   20.5830 C   0  0  0  0  0  0  0  0  0  0  0  0
   32.1180   39.8280   23.0580 C   0  0  0  0  0  0  0  0  0  0  0  0
   39.6940   40.7120   22.8730 P   0  0  0  0  0  0  0  0  0  0  0  0
   34.7660   41.4530   21.8190 C   0  0  0  0  0  0  0  0  0  0  0  0
   38.8040   39.8120   23.6620 O   0  0  0  0  0  0  0  0  0  0  0  0
   35.7800   40.8440   21.5100 C   0  0  0  0  0  0  0  0  0  0  0  0
   34.5820   38.1670   22.7200 O   0  0  0  0  0  0  0  0  0  0  0  0
   30.0560   37.7240   22.9090 C   0  0  0  0  0  0  0  0  0  0  0  0
   32.3980   37.4060   22.9790 O   0  0  0  0  0  0  0  0  0  0  0  0
   36.6370   38.4250   24.9130 S   0  0  0  0  0  0  0  0  0  0  0  0
   32.7450   40.7370   21.9930 C   0  0  0  0  0  0  0  0  0  0  0  0
   34.3710   36.1280   22.8340 O   0  0  0  0  0  0  0  0  0  0  0  0
   38.2490   38.9880   24.6890 C   0  0  0  0  0  0  0  0  0  0  0  0
   38.1180   40.8560   21.7420 C   0  0  0  0  0  0  0  0  0  0  0  0
  4 19  1  0
  4 20  1  0
  4 13  1  0
  5 18  1  0
  5 23  1  0
  5 20  1  0
  6  5  1  0
  8 15  1  0
  8 22  1  0
 10  9  1  0
 10 25  1  0
 11  7  2  0
 12 10  1  0
 12 17  1  0
 14  3  2  0
 14  1  1  0
 14 16  1  0
 16 24  1  0
 17 15  2  3
 17 11  1  0
 22 13  1  0
 24  2  1  0
 24 21  1  0
 25 11  1  0
 25 14  1  0
M  END
$$$$

     RDKit          3D

 11 11  0  0  0  0  0  0  0  0999 V2000
   35.8810   40.5160   21.2640 C   0  0  0  0  0  0  0  0  0  0  0  0
   36.0620   39.7150   20.0670 N   0  0  0  0  0  0  0  0  0  0  0  0
   36.5030   40.5460   22.6180 C   0  0  0  0  0  0  0  0  0  0  0  0
   39.2660   38.0890   22.8030 N   0  0  0  0  0  0  0  0  0  0  0  0
   37.7040   38.0940   20.8910 C   0  0  0  0  0  0  0  0  0  0  0  0
   37.4610   39.1460   19.7930 C   0  0  0  0  0  0  0  0  0  0  0  0
   36.0080   41.2030   23.5040 O   0  0  0  0  0  0  0  0  0  0  0  0
   39.3690   41.5440   23.8850 O   0  0  0  0  0  0  0  0  0  0  0  0
   38.7890   40.6670   23.5740 C   0  0  0  0  0  0  0  0  0  0  0  0
   37.8520   40.0400   22.7760 N   0  0  0  0  0  0  0  0  0  0  0  0
   38.1620   38.8050   22.1950 C   0  0  0  0  0  0  0  0  0  0  0  0
  1  3  1  0
  2  1  1  0
  3 10  1  0
  3  7  2  0
  5 11  1  0
  6  2  1  0
  6  5  1  0
  9  8  2  0
 10  9  1  0
 11 10  1  0
 11  4  1  0
M  END
$$$$

     RDKit          3D

 24 26  0  0  0  0  0  0  0  0999 V2000
   38.5930   42.1630   25.1450 O   0  0  0  0  0  0  0  0  0  0  0  0
   41.2190   39.6700   21.7920 O   0  0  0  0  0  0  0  0  0  0  0  0
   34.7390   39.4060   21.3300 O   0  0  0  0  0  0  0  0  0  0  0  0
   38.4250   39.2820   25.3040 O   0  0  0  0  0  0  0  0  0  0  0  0
   36.4600   38.6680   23.4190 C   0  0  0  0  0  0  0  0  0  0  0  0
   41.3290   41.0040   22.5000 C   0  0  0  0  0  0  0  0  0  0  0  0
   35.7260   41.0280   22.8740 C   0  0  0  0  0  0  0  0  0  0  0  0
   37.9830   38.6680   22.9790 C   0  0  0  0  0  0  0  0  0  0  0  0
   40.3150   40.9870   23.3420 C   0  0  0  0  0  0  0  0  0  0  0  0
   32.1630   37.7510   23.0090 O   0  0  0  0  0  0  0  0  0  0  0  0
   35.4090   37.6190   22.9040 C   0  0  0  0  0  0  0  0  0  0  0  0
   39.4780   42.4770   24.0100 S   0  0  0  0  0  0  0  0  0  0  0  0
   34.5040   40.4700   22.2390 C   0  0  0  0  0  0  0  0  0  0  0  0
   40.4540   43.5360   24.2080 O   0  0  0  0  0  0  0  0  0  0  0  0
   38.5400   42.8280   23.0240 O   0  0  0  0  0  0  0  0  0  0  0  0
   40.0510   39.5650   23.7350 C   0  0  0  0  0  0  0  0  0  0  0  0
   38.8840   38.7390   24.1840 C   0  0  0  0  0  0  0  0  0  0  0  0
   34.4600   38.0700   21.7160 C   0  0  0  0  0  0  0  0  0  0  0  0
   36.0010   39.9580   23.8180 N   0  0  0  0  0  0  0  0  0  0  0  0
   32.2310   36.5170   20.7920 C   0  0  0  0  0  0  0  0  0  0  0  0
   32.6440   37.9060   21.6770 S   0  0  0  0  0  0  0  0  0  0  0  0
   39.0320   38.9440   21.8220 C   0  0  0  0  0  0  0  0  0  0  0  0
   40.3090   38.8650   22.5000 N   0  0  0  0  0  0  0  0  0  0  0  0
   32.0600   38.9620   20.9450 O   0  0  0  0  0  0  0  0  0  0  0  0
  2 23  1  0
  2  6  1  0
  3 18  1  0
  3 13  1  0
  5 11  1  0
  5 19  1  0
  6  9  1  0
  7 19  1  0
  8 22  1  0
  8  5  1  0
  8 17  1  0
  9 16  1  0
  9 12  1  0
 12 14  1  0
 12  1  1  0
 13  7  1  0
 15 12  1  0
 16 17  1  0
 17  4  1  0
 18 11  1  0
 20 21  1  0
 21 18  1  0
 21 10  2  0
 22 23  1  0
 23 16  1  0
 24 21  2  0
M  END
$$$$

     RDKit          3D

 10 10  0  0  0  0  0  0  0  0999 V2000
   38.0570   38.1450   20.3420 C   0  0  0  0  0  0  0  0  0  0  0  0
   41.5730   41.5210   21.4840 S   0  0  0  0  0  0  0  0  0  0  0  0
   39.0140   39.4910   21.7730 N   0  0  0  0  0  0  0  0  0  0  0  0
   39.7490   43.2960   23.6390 O   0  0  0  0  0  0  0  0  0  0  0  0
   39.9220   41.6200   22.3650 C   0  0  0  0  0  0  0  0  0  0  0  0
   39.2770   39.8600   20.4320 C   0  0  0  0  0  0  0  0  0  0  0  0
   39.6300   42.7350   22.9730 C   0  0  0  0  0  0  0  0  0  0  0  0
   38.3440   38.3250   21.6690 C   0  0  0  0  0  0  0  0  0  0  0  0
   38.5420   39.0900   19.5730 N   0  0  0  0  0  0  0  0  0  0  0  0
   39.5290   40.3000   22.8560 C   0  0  0  0  0  0  0  0  0  0  0  0
  1  8  1  0
  3 10  1  0
  5  2  1  0
  5 10  1  0
  5  7  1  0
  6  3  1  0
  7  4  2  0
  8  3  1  0
  9  1  1  0
  9  6  1  0
M  END
$$$$

     RDKit          3D

 10 10  0  0  0  0  0  0  0  0999 V2000
   37.3560   39.1840   22.0730 C   0  0  0  0  0  0  0  0  0  0  0  0
   36.3710   38.5960   23.1260 C   0  0  0  0  0  0  0  0  0  0  0  0
   34.2470   37.1190   22.6220 C   0  0  0  0  0  0  0  0  0  0  0  0
   38.4260   38.2810   21.8170 O   0  0  0  0  0  0  0  0  0  0  0  0
   37.9480   40.6130   22.3010 C   0  0  0  0  0  0  0  0  0  0  0  0
   36.5470   40.7110   24.3210 C   0  0  0  0  0  0  0  0  0  0  0  0
   37.1490   41.4540   23.2360 O   0  0  0  0  0  0  0  0  0  0  0  0
   35.5430   39.7260   23.7520 C   0  0  0  0  0  0  0  0  0  0  0  0
   38.1510   41.3300   21.0930 O   0  0  0  0  0  0  0  0  0  0  0  0
   35.3230   37.6570   22.5190 C   0  0  0  0  0  0  0  0  0  0  0  0
  1  4  1  0
  1  5  1  0
  1  2  1  0
  2 10  1  0
  2  8  1  0
  5  9  1  0
  5  7  1  0
  7  6  1  0
  8  6  1  0
 10  3  2  0
M  END
$$$$

     RDKit          3D

 19 18  0  0  0  0  0  0  0  0999 V2000
   35.9570   42.6570   20.6050 O   0  0  0  0  0  0  0  0  0  0  0  0
   34.7510   41.0360   19.1170 O   0  0  0  0  0  0  0  0  0  0  0  0
   40.6600   40.2310   21.4690 C   0  0  0  0  0  0  0  0  0  0  0  0
   37.0520   40.0880   22.2660 C   0  0  0  0  0  0  0  0  0  0  0  0
   39.9970   41.7400   23.4860 C   0  0  0  0  0  0  0  0  0  0  0  0
   41.2150   39.0600   22.0730 N   0  0  0  0  0  0  0  0  0  0  0  0
   39.5310   41.5660   24.8990 C   0  0  0  0  0  0  0  0  0  0  0  0
   39.5240   40.6920   22.4310 C   0  0  0  0  0  0  0  0  0  0  0  0
   37.8100   40.3830   19.4200 N   0  0  0  0  0  0  0  0  0  0  0  0
   39.9640   39.7750   20.2580 N   0  0  0  0  0  0  0  0  0  0  0  0
   35.9520   39.9000   21.1930 O   0  0  0  0  0  0  0  0  0  0  0  0
   37.9840   42.3970   24.9970 S   0  0  0  0  0  0  0  0  0  0  0  0
   38.7900   37.9670   23.9420 O   0  0  0  0  0  0  0  0  0  0  0  0
   37.5350   39.6900   25.0960 C   0  0  0  0  0  0  0  0  0  0  0  0
   33.8120   41.7750   21.3890 O   0  0  0  0  0  0  0  0  0  0  0  0
   35.1470   41.3620   20.5880 P   0  0  0  0  0  0  0  0  0  0  0  0
   38.5180   39.8140   20.1320 C   0  0  0  0  0  0  0  0  0  0  0  0
   38.2750   39.0340   23.9750 C   0  0  0  0  0  0  0  0  0  0  0  0
   38.2580   39.8990   22.7880 C   0  0  0  0  0  0  0  0  0  0  0  0
  2 16  2  0
  3  6  1  0
  3  8  1  0
  5  7  1  0
  7 12  1  0
  8 19  1  0
  8  5  1  0
  9 17  2  0
 10  3  1  0
 11  4  1  0
 13 18  2  0
 16  1  1  0
 16 11  1  0
 16 15  1  0
 17 10  1  0
 18 14  1  0
 19  4  1  0
 19 18  1  0
M  END
$$$$

     RDKit          3D

 12 12  0  0  0  0  0  0  0  0999 V2000
   36.1240   39.8000   20.5740 C   0  0  0  0  0  0  0  0  0  0  0  0
   38.1870   37.9070   24.8190 C   0  0  0  0  0  0  0  0  0  0  0  0
   37.2880   39.0450   20.9490 C   0  0  0  0  0  0  0  0  0  0  0  0
   37.6260   38.3770   26.0880 C   0  0  0  0  0  0  0  0  0  0  0  0
   35.2360   40.3880   21.6190 C   0  0  0  0  0  0  0  0  0  0  0  0
   38.1050   39.0030   23.7820 C   0  0  0  0  0  0  0  0  0  0  0  0
   35.1780   42.6710   20.3570 O   0  0  0  0  0  0  0  0  0  0  0  0
   34.4180   41.5050   20.9450 C   0  0  0  0  0  0  0  0  0  0  0  0
   36.1170   40.2500   22.8610 N   0  0  0  0  0  0  0  0  0  0  0  0
   36.8830   38.0910   21.9800 N   0  0  0  0  0  0  0  0  0  0  0  0
   35.8680   39.7970   19.3620 O   0  0  0  0  0  0  0  0  0  0  0  0
   36.6830   38.9540   23.1540 C   0  0  0  0  0  0  0  0  0  0  0  0
  1  3  1  0
  1  5  1  0
  2  4  1  0
  3 10  1  0
  5  8  1  0
  5  9  1  0
  6  2  1  0
  7  8  1  0
  9 12  1  0
 10 12  1  0
 11  1  2  0
 12  6  1  0
M  END
$$$$

     RDKit          3D

 18 19  0  0  0  0  0  0  0  0999 V2000
   39.2340   40.8610   22.6740 O   0  0  0  0  0  0  0  0  0  0  0  0
   36.9070   38.3690   21.8650 C   0  0  0  0  0  0  0  0  0  0  0  0
   40.5670   42.7630   21.9810 C   0  0  0  0  0  0  0  0  0  0  0  0
   39.1770   37.7120   22.8300 N   0  0  0  0  0  0  0  0  0  0  0  0
   39.8750   42.0390   23.0380 C   0  0  0  0  0  0  0  0  0  0  0  0
   31.1540   38.1400   21.6790 C   0  0  0  0  0  0  0  0  0  0  0  0
   33.7880   40.3860   23.4360 C   0  0  0  0  0  0  0  0  0  0  0  0
   39.0120   39.6950   24.4660 O   0  0  0  0  0  0  0  0  0  0  0  0
   34.2760   37.8830   22.0420 C   0  0  0  0  0  0  0  0  0  0  0  0
   38.3240   38.6990   22.4060 C   0  0  0  0  0  0  0  0  0  0  0  0
   36.8180   40.5170   23.9150 C   0  0  0  0  0  0  0  0  0  0  0  0
   36.8160   41.2840   24.8730 O   0  0  0  0  0  0  0  0  0  0  0  0
   32.6470   38.3760   22.2460 C   0  0  0  0  0  0  0  0  0  0  0  0
   35.4100   40.2230   23.2040 C   0  0  0  0  0  0  0  0  0  0  0  0
   32.7420   40.0020   22.2980 C   0  0  0  0  0  0  0  0  0  0  0  0
   40.7120   41.7390   24.1940 O   0  0  0  0  0  0  0  0  0  0  0  0
   35.5710   38.5490   22.7760 C   0  0  0  0  0  0  0  0  0  0  0  0
   38.2700   39.9440   23.4380 C   0  0  0  0  0  0  0  0  0  0  0  0
  1  5  1  0
  1 18  1  0
  2 10  1  0
  5  3  1  0
  5 16  1  0
  9 13  1  0
  9 17  1  0
 10  4  1  0
 10 18  1  0
 11 12  2  0
 13  6  1  0
 13 15  1  0
 14  7  1  0
 14 11  1  0
 15  7  1  0
 17  2  1  0
 17 14  1  0
 18 11  1  0
 18  8  1  0
M  END
$$$$

     RDKit          3D

 13 12  0  0  0  0  0  0  0  0999 V2000
   38.5880   38.9260   21.2120 C   0  0  0  0  0  0  0  0  0  0  0  0
   39.0400   38.0880   23.4560 O   0  0  0  0  0  0  0  0  0  0  0  0
   39.5560   39.6050   20.2940 C   0  0  0  0  0  0  0  0  0  0  0  0
   36.7790   39.8600   24.3230 C   0  0  0  0  0  0  0  0  0  0  0  0
   35.3840   40.5220   24.4560 C   0  0  0  0  0  0  0  0  0  0  0  0
   37.2400   40.7620   22.0540 O   0  0  0  0  0  0  0  0  0  0  0  0
   37.1840   39.6280   22.9010 C   0  0  0  0  0  0  0  0  0  0  0  0
   40.1130   39.1150   19.3750 O   0  0  0  0  0  0  0  0  0  0  0  0
   34.7790   40.7670   23.4950 N   0  0  0  0  0  0  0  0  0  0  0  0
   40.0320   40.6560   20.7090 O   0  0  0  0  0  0  0  0  0  0  0  0
   34.3890   40.7790   22.3800 O   0  0  0  0  0  0  0  0  0  0  0  0
   38.5600   39.2060   22.7150 C   0  0  0  0  0  0  0  0  0  0  0  0
   38.1530   37.6930   20.9510 N   0  0  0  0  0  0  0  0  0  0  0  0
  1 13  1  0
  1 12  1  0
  3 10  1  0
  3  1  1  0
  4  5  1  0
  7  6  1  0
  7  4  1  0
  8  3  2  0
  9  5  1  0
 11  9  1  0
 12  7  1  0
 12  2  1  0
M  END
$$$$

     RDKit          3D

 17 17  0  0  0  0  0  0  0  0999 V2000
   36.9960   38.0130   20.6400 O   0  0  0  0  0  0  0  0  0  0  0  0
   37.2790   39.5130   21.8400 C   0  0  0  0  0  0  0  0  0  0  0  0
   34.8440   42.2130   21.9050 O   0  0  0  0  0  0  0  0  0  0  0  0
   35.2200   40.0770   20.1970 O   0  0  0  0  0  0  0  0  0  0  0  0
   38.4090   37.9290   18.2340 N   0  0  0  0  0  0  0  0  0  0  0  0
   36.1370   41.6470   21.8600 C   0  0  0  0  0  0  0  0  0  0  0  0
   36.1960   43.7230   23.8550 O   0  0  0  0  0  0  0  0  0  0  0  0
   36.2120   40.3480   21.1590 C   0  0  0  0  0  0  0  0  0  0  0  0
   40.4650   38.2950   18.9270 O   0  0  0  0  0  0  0  0  0  0  0  0
   36.7670   41.2450   23.2100 C   0  0  0  0  0  0  0  0  0  0  0  0
   38.5510   42.9510   23.8290 O   0  0  0  0  0  0  0  0  0  0  0  0
   37.1390   42.6410   24.1820 P   0  0  0  0  0  0  0  0  0  0  0  0
   37.0030   42.3580   25.5790 O   0  0  0  0  0  0  0  0  0  0  0  0
   38.7160   39.3410   19.9800 O   0  0  0  0  0  0  0  0  0  0  0  0
   39.2840   38.5670   19.1190 C   0  0  0  0  0  0  0  0  0  0  0  0
   37.8320   40.2350   22.9910 O   0  0  0  0  0  0  0  0  0  0  0  0
   38.2100   38.7330   21.1510 C   0  0  0  0  0  0  0  0  0  0  0  0
  2 17  1  0
  2 16  1  0
  5 15  1  0
  6  3  1  0
  6 10  1  0
  7 12  1  0
  8  4  1  0
  8  2  1  0
  8  6  1  0
  9 15  2  0
 10 12  1  0
 11 12  2  0
 12 13  1  0
 14 17  1  0
 15 14  1  0
 16 10  1  0
 17  1  1  0
M  END
$$$$

     RDKit          3D

 12 11  0  0  0  0  0  0  0  0999 V2000
   39.1930   38.6410   21.0130 C   0  0  0  0  0  0  0  0  0  0  0  0
   36.5550   41.1950   25.0990 S   0  0  0  0  0  0  0  0  0  0  0  0
   37.5590   38.9130   24.0750 N   0  0  0  0  0  0  0  0  0  0  0  0
   35.3010   39.9880   21.3750 C   0  0  0  0  0  0  0  0  0  0  0  0
   37.8580   38.5240   21.7090 C   0  0  0  0  0  0  0  0  0  0  0  0
   34.2180   41.4160   19.6830 C   0  0  0  0  0  0  0  0  0  0  0  0
   35.9160   40.2040   22.7270 C   0  0  0  0  0  0  0  0  0  0  0  0
   33.0050   40.6310   21.7020 N   0  0  0  0  0  0  0  0  0  0  0  0
   37.3560   39.5740   22.7790 C   0  0  0  0  0  0  0  0  0  0  0  0
   39.5980   39.6950   20.3310 O   0  0  0  0  0  0  0  0  0  0  0  0
   37.6040   39.7450   25.2770 C   0  0  0  0  0  0  0  0  0  0  0  0
   34.1350   40.9530   21.1200 C   0  0  0  0  0  0  0  0  0  0  0  0
  1  5  1  0
  2 11  1  0
  3 11  1  0
  4  7  1  0
  6 12  1  0
  7  9  1  0
  9  5  1  0
  9  3  1  0
 10  1  1  0
 12  4  1  0
 12  8  2  0
M  END
$$$$

     RDKit          3D

 10  9  0  0  0  0  0  0  0  0999 V2000
   35.1270   40.3080   23.1620 O   0  0  0  0  0  0  0  0  0  0  0  0
   40.4650   39.6430   21.0250 O   0  0  0  0  0  0  0  0  0  0  0  0
   36.9610   39.7630   21.3880 P   0  0  0  0  0  0  0  0  0  0  0  0
   35.6780   38.8040   19.3440 C   0  0  0  0  0  0  0  0  0  0  0  0
   37.8650   38.9160   22.5360 O   0  0  0  0  0  0  0  0  0  0  0  0
   39.2800   38.1990   19.6610 O   0  0  0  0  0  0  0  0  0  0  0  0
   38.4740   39.8310   20.8650 C   0  0  0  0  0  0  0  0  0  0  0  0
   36.8730   39.5460   19.6200 C   0  0  0  0  0  0  0  0  0  0  0  0
   35.2520   39.6560   21.9660 C   0  0  0  0  0  0  0  0  0  0  0  0
   39.2910   39.2060   20.6540 C   0  0  0  0  0  0  0  0  0  0  0  0
  3  9  1  0
  3  5  2  0
  4  8  1  0
  6 10  2  0
  7  3  1  0
  8  3  1  0
  9  1  1  0
 10  7  1  0
 10  2  1  0
M  END
$$$$

     RDKit          3D

 21 21  0  0  0  0  0  0  0  0999 V2000
   38.1450   38.4070   24.9940 C   0  0  0  0  0  0  0  0  0  0  0  0
   39.3610   39.3140   25.1490 C   0  0  0  0  0  0  0  0  0  0  0  0
   40.9140   39.8380   23.4150 C   0  0  0  0  0  0  0  0  0  0  0  0
   37.4880   41.5740   22.9890 C   0  0  0  0  0  0  0  0  0  0  0  0
   33.2930   38.7360   22.0710 C   0  0  0  0  0  0  0  0  0  0  0  0
   30.6330   39.5910   21.8740 C   0  0  0  0  0  0  0  0  0  0  0  0
   37.0150   40.7420   24.0930 O   0  0  0  0  0  0  0  0  0  0  0  0
   32.5910   39.1360   23.1950 C   0  0  0  0  0  0  0  0  0  0  0  0
   35.4120   39.5170   22.9600 N   0  0  0  0  0  0  0  0  0  0  0  0
   37.6260   38.5290   23.5670 C   0  0  0  0  0  0  0  0  0  0  0  0
   32.5990   38.6470   20.8640 C   0  0  0  0  0  0  0  0  0  0  0  0
   37.9560   40.7900   21.7880 C   0  0  0  0  0  0  0  0  0  0  0  0
   29.2240   40.1770   21.8040 C   0  0  0  0  0  0  0  0  0  0  0  0
   37.4550   36.3520   26.0320 C   0  0  0  0  0  0  0  0  0  0  0  0
   40.4000   38.8390   24.2670 O   0  0  0  0  0  0  0  0  0  0  0  0
   36.6170   39.5850   23.4580 C   0  0  0  0  0  0  0  0  0  0  0  0
   31.2930   39.5910   23.0890 C   0  0  0  0  0  0  0  0  0  0  0  0
   34.7870   38.4590   22.1540 C   0  0  0  0  0  0  0  0  0  0  0  0
   38.5390   37.0280   25.3020 N   0  0  0  0  0  0  0  0  0  0  0  0
   28.9080   41.0840   21.1110 O   0  0  0  0  0  0  0  0  0  0  0  0
   31.2930   39.0880   20.7720 C   0  0  0  0  0  0  0  0  0  0  0  0
  1 10  1  0
  1  2  1  0
  1 19  1  0
  3 15  1  0
  4  7  1  0
  5 18  1  0
  5  8  1  0
  6 17  1  0
  9 16  2  3
 11  5  2  0
 12  4  1  0
 13  6  1  0
 15  2  1  0
 16 10  1  0
 16  7  1  0
 17  8  2  0
 18  9  1  0
 19 14  1  0
 20 13  2  0
 21 11  1  0
 21  6  2  0
M  END
$$$$

     RDKit          3D

 18 18  0  0  0  0  0  0  0  0999 V2000
   38.3310   38.0720   25.0360 C   0  0  0  0  0  0  0  0  0  0  0  0
   38.0940   41.1960   23.8380 C   0  0  0  0  0  0  0  0  0  0  0  0
   37.8670   43.5950   24.4290 C   0  0  0  0  0  0  0  0  0  0  0  0
   41.0790   43.6110   20.7980 O   0  0  0  0  0  0  0  0  0  0  0  0
   38.8770   42.7100   23.5460 C   0  0  0  0  0  0  0  0  0  0  0  0
   37.2490   38.4380   25.0870 C   0  0  0  0  0  0  0  0  0  0  0  0
   38.4430   44.8050   26.6520 O   0  0  0  0  0  0  0  0  0  0  0  0
   38.2820   39.6800   23.6320 C   0  0  0  0  0  0  0  0  0  0  0  0
   38.7790   44.5710   25.2970 C   0  0  0  0  0  0  0  0  0  0  0  0
   39.1390   43.1340   22.0700 C   0  0  0  0  0  0  0  0  0  0  0  0
   35.1520   38.4190   24.1470 N   0  0  0  0  0  0  0  0  0  0  0  0
   37.0790   42.7820   25.2280 O   0  0  0  0  0  0  0  0  0  0  0  0
   35.4080   37.5070   23.1280 O   0  0  0  0  0  0  0  0  0  0  0  0
   35.9480   40.4780   25.1000 N   0  0  0  0  0  0  0  0  0  0  0  0
   39.9970   44.3400   21.5770 C   0  0  0  0  0  0  0  0  0  0  0  0
   39.0650   42.0900   20.9830 C   0  0  0  0  0  0  0  0  0  0  0  0
   36.1370   39.1460   24.6900 C   0  0  0  0  0  0  0  0  0  0  0  0
   37.2230   41.3730   25.1620 C   0  0  0  0  0  0  0  0  0  0  0  0
  1  6  3  0
  2  8  1  0
  2 18  1  0
  3 12  1  0
  3  9  1  0
  4 15  1  0
  5 10  1  0
  5  2  1  0
  5  3  1  0
  9  7  1  0
 10 16  1  0
 11 17  1  0
 13 11  1  0
 15 10  1  0
 17  6  1  0
 17 14  1  0
 18 14  1  0
 18 12  1  0
M  END
$$$$

     RDKit          3D

 12 12  0  0  0  0  0  0  0  0999 V2000
   39.7270   41.0630   23.9260 O   0  0  0  0  0  0  0  0  0  0  0  0
   32.6460   38.7030   20.6480 C   0  0  0  0  0  0  0  0  0  0  0  0
   37.2170   37.5070   24.7260 C   0  0  0  0  0  0  0  0  0  0  0  0
   35.1580   40.6560   23.1470 C   0  0  0  0  0  0  0  0  0  0  0  0
   34.6120   38.6520   21.9790 C   0  0  0  0  0  0  0  0  0  0  0  0
   37.4780   40.9050   23.3640 N   0  0  0  0  0  0  0  0  0  0  0  0
   36.4200   39.9220   23.9400 C   0  0  0  0  0  0  0  0  0  0  0  0
   36.6970   38.3040   23.6980 C   0  0  0  0  0  0  0  0  0  0  0  0
   34.1080   39.6180   22.8470 C   0  0  0  0  0  0  0  0  0  0  0  0
   35.7670   37.7640   22.5420 C   0  0  0  0  0  0  0  0  0  0  0  0
   38.7200   40.7850   23.6260 C   0  0  0  0  0  0  0  0  0  0  0  0
   33.9900   38.2260   20.8490 O   0  0  0  0  0  0  0  0  0  0  0  0
  2 12  1  0
  4  7  1  0
  5 12  1  0
  5 10  1  0
  5  9  1  0
  6 11  2  0
  7  6  1  0
  8  7  1  0
  8  3  1  0
  9  4  1  0
 10  8  1  0
 11  1  2  0
M  END
$$$$

     RDKit          3D

 10 10  0  0  0  0  0  0  0  0999 V2000
   37.5090   41.4680   19.4960 C   0  0  0  0  0  0  0  0  0  0  0  0
   37.5060   39.1380   20.5240 N   0  0  0  0  0  0  0  0  0  0  0  0
   39.6740   40.0270   19.8350 C   0  0  0  0  0  0  0  0  0  0  0  0
   34.4140   38.7890   20.7930 O   0  0  0  0  0  0  0  0  0  0  0  0
   38.6450   38.7930   19.7340 C   0  0  0  0  0  0  0  0  0  0  0  0
   35.3820   38.7920   21.6250 C   0  0  0  0  0  0  0  0  0  0  0  0
   34.8970   39.1370   22.9660 C   0  0  0  0  0  0  0  0  0  0  0  0
   36.6420   38.0820   21.2300 C   0  0  0  0  0  0  0  0  0  0  0  0
   39.0470   41.2880   19.2210 C   0  0  0  0  0  0  0  0  0  0  0  0
   36.6860   40.3740   20.2150 C   0  0  0  0  0  0  0  0  0  0  0  0
  1 10  1  0
  2  8  1  0
  4  6  2  0
  5  3  1  0
  5  2  1  0
  6  7  1  0
  8  6  1  0
  9  1  2  0
  9  3  1  0
 10  2  1  0
M  END
$$$$

     RDKit          3D

 28 29  0  0  0  0  0  0  0  0999 V2000
   40.2960   40.2300   22.7660 C   0  0  0  0  0  0  0  0  0  0  0  0
   37.5800   37.5850   25.5240 C   0  0  0  0  0  0  0  0  0  0  0  0
   40.0650   39.8490   20.0270 O   0  0  0  0  0  0  0  0  0  0  0  0
   31.4210   37.8440   22.8080 C   0  0  0  0  0  0  0  0  0  0  0  0
   41.4990   39.8290   20.5480 O   0  0  0  0  0  0  0  0  0  0  0  0
   36.5180   40.8050   22.2860 C   0  0  0  0  0  0  0  0  0  0  0  0
   38.9650   38.9710   25.0690 C   0  0  0  0  0  0  0  0  0  0  0  0
   32.7580   37.3750   22.4780 C   0  0  0  0  0  0  0  0  0  0  0  0
   30.1350   37.2290   22.3440 C   0  0  0  0  0  0  0  0  0  0  0  0
   40.2370   39.5520   24.2130 C   0  0  0  0  0  0  0  0  0  0  0  0
   37.0430   38.2050   22.6230 C   0  0  0  0  0  0  0  0  0  0  0  0
   35.3300   37.7150   22.7110 C   0  0  0  0  0  0  0  0  0  0  0  0
   38.5420   36.8560   26.0480 O   0  0  0  0  0  0  0  0  0  0  0  0
   38.9480   40.1320   21.8320 C   0  0  0  0  0  0  0  0  0  0  0  0
   41.6210   39.4820   22.0150 C   0  0  0  0  0  0  0  0  0  0  0  0
   37.7640   38.9380   24.8010 C   0  0  0  0  0  0  0  0  0  0  0  0
   29.3310   36.4270   21.9560 C   0  0  0  0  0  0  0  0  0  0  0  0
   37.8240   37.3110   22.8250 O   0  0  0  0  0  0  0  0  0  0  0  0
   39.1780   38.9830   26.4710 N   0  0  0  0  0  0  0  0  0  0  0  0
   32.4210   39.8570   23.6430 C   0  0  0  0  0  0  0  0  0  0  0  0
   42.9020   39.8070   22.4370 O   0  0  0  0  0  0  0  0  0  0  0  0
   35.3320   36.3500   22.2510 O   0  0  0  0  0  0  0  0  0  0  0  0
   33.8170   38.1870   22.7480 C   0  0  0  0  0  0  0  0  0  0  0  0
   33.5940   39.5170   22.9820 C   0  0  0  0  0  0  0  0  0  0  0  0
   37.4610   39.6350   22.1100 C   0  0  0  0  0  0  0  0  0  0  0  0
   37.1080   39.8860   24.4810 O   0  0  0  0  0  0  0  0  0  0  0  0
   30.2880   35.8840   22.7300 O   0  0  0  0  0  0  0  0  0  0  0  0
   31.3270   39.0020   23.6300 C   0  0  0  0  0  0  0  0  0  0  0  0
  1 14  1  0
  1 10  1  0
  2 13  1  0
  3  5  1  0
  4 28  1  0
  5 15  1  0
  7 19  1  0
  8 23  1  0
  8  4  2  0
  9 27  1  0
  9  4  1  0
 10  7  1  0
 11 12  1  0
 11 18  2  0
 12 22  1  0
 12 23  1  0
 14 25  1  0
 15 21  1  0
 15  1  1  0
 16  7  1  0
 16  2  1  0
 17  9  1  0
 17 27  1  0
 23 24  2  0
 24 20  1  0
 25  6  1  0
 25 11  1  0
 26 16  2  0
 28 20  2  0
M  END
$$$$
