
     RDKit          3D

 20 22  0  0  0  0  0  0  0  0999 V2000
   42.3350   34.8570   30.0320 O   0  0  0  0  0  0  0  0  0  0  0  0
   42.7860   35.9770   30.1390 C   0  0  0  0  0  0  0  0  0  0  0  0
   42.7790   38.1340   28.9290 C   0  0  0  0  0  0  0  0  0  0  0  0
   47.9390   35.1160   32.7710 C   0  0  0  0  0  0  0  0  0  0  0  0
   46.5960   35.2800   33.4290 C   0  0  0  0  0  0  0  0  0  0  0  0
   46.4550   36.0870   34.6350 O   0  0  0  0  0  0  0  0  0  0  0  0
   43.1640   36.7020   28.9960 C   0  0  0  0  0  0  0  0  0  0  0  0
   42.9800   36.2120   33.7840 C   0  0  0  0  0  0  0  0  0  0  0  0
   42.6380   36.5660   31.4790 C   0  0  0  0  0  0  0  0  0  0  0  0
   42.5130   38.1260   31.3300 C   0  0  0  0  0  0  0  0  0  0  0  0
   47.6770   35.3600   31.1010 O   0  0  0  0  0  0  0  0  0  0  0  0
   44.1270   37.1750   34.6110 C   0  0  0  0  0  0  0  0  0  0  0  0
   43.3780   38.7340   30.2210 C   0  0  0  0  0  0  0  0  0  0  0  0
   43.4850   34.3020   35.6880 C   0  0  0  0  0  0  0  0  0  0  0  0
   43.5080   35.9260   32.4660 N   0  0  0  0  0  0  0  0  0  0  0  0
   45.5450   34.6580   32.7340 C   0  0  0  0  0  0  0  0  0  0  0  0
   44.6170   35.2930   31.6730 C   0  0  0  0  0  0  0  0  0  0  0  0
   44.4040   34.8970   35.4290 C   0  0  0  0  0  0  0  0  0  0  0  0
   44.7020   33.7600   35.1020 C   0  0  0  0  0  0  0  0  0  0  0  0
   45.0950   36.1980   35.3070 C   0  0  0  0  0  0  0  0  0  0  0  0
  1  2  2  0
  2  9  1  0
  3  7  1  0
  3 13  1  0
  5  4  1  0
  5  6  1  0
  6 20  1  0
  7  2  1  0
  8 12  1  0
  9 10  1  0
  9 15  1  0
 11  4  1  0
 12 20  1  0
 13 10  1  0
 15 17  1  0
 15  8  1  0
 16  5  1  0
 17 16  1  0
 18 14  1  0
 19 18  1  0
 19 14  1  0
 20 18  1  0
M  END
$$$$

     RDKit          3D

  9  8  0  0  0  0  0  0  0  0999 V2000
   45.9550   35.4160   34.8060 O   0  0  0  0  0  0  0  0  0  0  0  0
   45.6140   34.6120   32.6070 C   0  0  0  0  0  0  0  0  0  0  0  0
   43.6330   35.9780   35.0560 C   0  0  0  0  0  0  0  0  0  0  0  0
   43.3910   35.3360   31.7800 N   0  0  0  0  0  0  0  0  0  0  0  0
   44.0480   35.8020   36.1570 O   0  0  0  0  0  0  0  0  0  0  0  0
   43.2690   37.1860   34.9050 N   0  0  0  0  0  0  0  0  0  0  0  0
   43.5290   35.0040   34.0320 N   0  0  0  0  0  0  0  0  0  0  0  0
   44.0730   34.9140   32.7860 C   0  0  0  0  0  0  0  0  0  0  0  0
   46.1100   34.2480   34.0250 C   0  0  0  0  0  0  0  0  0  0  0  0
  2  8  1  0
  2  9  1  0
  3  5  2  0
  4  8  2  0
  6  3  1  0
  7  3  1  0
  8  7  1  0
  9  1  1  0
M  END
$$$$

     RDKit          3D

  7  6  0  0  0  0  0  0  0  0999 V2000
   43.9230   36.0170   35.8710 C   0  0  0  0  0  0  0  0  0  0  0  0
   44.3580   37.0420   36.5750 O   0  0  0  0  0  0  0  0  0  0  0  0
   43.7930   34.9560   36.5150 O   0  0  0  0  0  0  0  0  0  0  0  0
   43.5190   34.6650   33.7260 C   0  0  0  0  0  0  0  0  0  0  0  0
   42.5220   34.3830   32.9960 O   0  0  0  0  0  0  0  0  0  0  0  0
   42.7240   37.1920   34.1040 O   0  0  0  0  0  0  0  0  0  0  0  0
   43.6720   36.0850   34.3550 C   0  0  0  0  0  0  0  0  0  0  0  0
  1  3  2  0
  1  2  1  0
  4  7  1  0
  5  4  2  0
  7  6  1  0
  7  1  1  0
M  END
$$$$

     RDKit          3D

 21 24  0  0  0  0  0  0  0  0999 V2000
   42.7620   36.5420   32.5160 C   0  0  0  0  0  0  0  0  0  0  0  0
   42.5800   36.1980   31.0720 C   0  0  0  0  0  0  0  0  0  0  0  0
   42.3900   35.3740   29.0980 N   0  0  0  0  0  0  0  0  0  0  0  0
   42.5450   35.0600   30.3820 N   0  0  0  0  0  0  0  0  0  0  0  0
   42.0370   37.5190   27.8420 C   0  0  0  0  0  0  0  0  0  0  0  0
   42.9920   33.3030   34.3810 N   0  0  0  0  0  0  0  0  0  0  0  0
   42.3430   38.6520   30.3910 C   0  0  0  0  0  0  0  0  0  0  0  0
   41.8880   38.8870   28.0560 C   0  0  0  0  0  0  0  0  0  0  0  0
   42.3900   37.2710   30.1670 C   0  0  0  0  0  0  0  0  0  0  0  0
   44.4240   37.4250   37.1840 O   0  0  0  0  0  0  0  0  0  0  0  0
   44.7510   34.1400   36.1790 C   0  0  0  0  0  0  0  0  0  0  0  0
   42.2470   36.7040   28.9260 C   0  0  0  0  0  0  0  0  0  0  0  0
   43.4740   34.3700   35.3270 C   0  0  0  0  0  0  0  0  0  0  0  0
   43.9060   36.7430   35.0720 O   0  0  0  0  0  0  0  0  0  0  0  0
   42.5420   35.4730   33.5320 C   0  0  0  0  0  0  0  0  0  0  0  0
   42.2940   34.0070   33.2680 C   0  0  0  0  0  0  0  0  0  0  0  0
   45.5810   35.4520   36.5010 C   0  0  0  0  0  0  0  0  0  0  0  0
   43.7700   35.5030   34.4370 C   0  0  0  0  0  0  0  0  0  0  0  0
   47.0060   35.2400   35.3680 S   0  0  0  0  0  0  0  0  0  0  0  0
   42.0810   39.4580   29.3090 C   0  0  0  0  0  0  0  0  0  0  0  0
   45.0220   36.7840   36.0140 C   0  0  0  0  0  0  0  0  0  0  0  0
  2  1  1  0
  3  4  1  0
  4  2  1  0
  5  8  2  0
  5 12  1  0
  6 13  1  0
  8 20  1  0
  9  7  1  0
  9  2  2  0
 11 17  1  0
 12  3  2  0
 12  9  1  0
 13 11  1  0
 14 21  1  0
 15  1  1  0
 15 18  1  0
 16 15  1  0
 16  6  1  0
 17 19  1  0
 18 14  1  0
 18 13  1  0
 20  7  2  0
 21 17  1  0
 21 10  1  0
M  END
$$$$

     RDKit          3D

 11 10  0  0  0  0  0  0  0  0999 V2000
   43.6150   35.1880   32.4700 C   0  0  0  0  0  0  0  0  0  0  0  0
   42.8040   35.5780   29.5450 O   0  0  0  0  0  0  0  0  0  0  0  0
   42.8050   35.6670   33.4720 O   0  0  0  0  0  0  0  0  0  0  0  0
   45.0030   35.5710   33.0300 C   0  0  0  0  0  0  0  0  0  0  0  0
   43.3990   37.1070   30.8970 C   0  0  0  0  0  0  0  0  0  0  0  0
   46.6180   37.5570   33.2370 C   0  0  0  0  0  0  0  0  0  0  0  0
   46.0840   34.7710   32.5600 O   0  0  0  0  0  0  0  0  0  0  0  0
   42.1470   37.4690   32.0470 O   0  0  0  0  0  0  0  0  0  0  0  0
   45.2640   37.0480   32.7710 C   0  0  0  0  0  0  0  0  0  0  0  0
   44.1810   37.3660   29.5250 C   0  0  0  0  0  0  0  0  0  0  0  0
   43.4000   35.6280   30.9470 C   0  0  0  0  0  0  0  0  0  0  0  0
  1  4  1  0
  1  3  1  0
  4  7  1  0
  5 10  1  0
  5 11  1  0
  5  8  1  0
  9  4  1  0
  9  6  1  0
 11  2  1  0
 11  1  1  0
M  END
$$$$

     RDKit          3D

 19 20  0  0  0  0  0  0  0  0999 V2000
   42.6270   35.4760   30.8780 C   0  0  0  0  0  0  0  0  0  0  0  0
   45.3780   36.1190   33.2760 N   0  0  0  0  0  0  0  0  0  0  0  0
   46.7320   34.2660   33.8640 C   0  0  0  0  0  0  0  0  0  0  0  0
   45.8220   35.4670   34.2680 C   0  0  0  0  0  0  0  0  0  0  0  0
   45.3380   36.5930   30.8140 C   0  0  0  0  0  0  0  0  0  0  0  0
   46.4300   33.8330   32.6030 O   0  0  0  0  0  0  0  0  0  0  0  0
   46.6800   37.1050   30.7720 C   0  0  0  0  0  0  0  0  0  0  0  0
   43.3190   35.8380   32.2310 C   0  0  0  0  0  0  0  0  0  0  0  0
   44.5020   36.5020   29.5860 C   0  0  0  0  0  0  0  0  0  0  0  0
   43.1900   35.9150   29.6390 C   0  0  0  0  0  0  0  0  0  0  0  0
   45.3670   35.6290   35.5820 N   0  0  0  0  0  0  0  0  0  0  0  0
   42.4080   33.0570   34.3330 C   0  0  0  0  0  0  0  0  0  0  0  0
   48.1880   34.3390   33.6570 O   0  0  0  0  0  0  0  0  0  0  0  0
   43.0500   34.4350   34.2840 C   0  0  0  0  0  0  0  0  0  0  0  0
   43.6010   37.6070   35.3060 O   0  0  0  0  0  0  0  0  0  0  0  0
   44.8070   36.2420   32.1020 C   0  0  0  0  0  0  0  0  0  0  0  0
   43.1580   35.8850   33.9150 C   0  0  0  0  0  0  0  0  0  0  0  0
   43.0700   37.0470   34.2200 C   0  0  0  0  0  0  0  0  0  0  0  0
   41.6900   33.9660   33.8050 N   0  0  0  0  0  0  0  0  0  0  0  0
  1  8  1  0
  2  4  1  0
  3  4  1  0
  4 11  2  0
  5 16  1  0
  6  3  1  0
  7  5  1  0
  8 17  1  0
  9 10  1  0
  9  5  2  0
 10  1  2  0
 13  3  1  0
 14 17  1  0
 14 12  1  0
 16  8  2  0
 16  2  1  0
 17 18  1  0
 18 15  1  0
 19 14  1  0
 19 12  1  0
M  END
$$$$

     RDKit          3D

 15 16  0  0  0  0  0  0  0  0999 V2000
   45.6480   38.0240   29.1500 C   0  0  0  0  0  0  0  0  0  0  0  0
   43.6850   36.3480   30.3040 C   0  0  0  0  0  0  0  0  0  0  0  0
   44.3120   36.8550   31.5280 C   0  0  0  0  0  0  0  0  0  0  0  0
   43.3250   35.2870   34.0220 C   0  0  0  0  0  0  0  0  0  0  0  0
   45.2950   36.8780   28.4700 O   0  0  0  0  0  0  0  0  0  0  0  0
   41.7240   35.7890   31.6570 O   0  0  0  0  0  0  0  0  0  0  0  0
   42.1200   37.2210   34.7770 O   0  0  0  0  0  0  0  0  0  0  0  0
   43.1190   35.9010   31.6330 C   0  0  0  0  0  0  0  0  0  0  0  0
   44.6810   38.3610   31.4530 C   0  0  0  0  0  0  0  0  0  0  0  0
   45.0030   34.6730   32.3920 C   0  0  0  0  0  0  0  0  0  0  0  0
   43.5380   34.8340   32.5890 C   0  0  0  0  0  0  0  0  0  0  0  0
   45.4730   36.0860   32.1430 C   0  0  0  0  0  0  0  0  0  0  0  0
   43.7430   37.6350   33.5380 O   0  0  0  0  0  0  0  0  0  0  0  0
   42.9760   36.7520   34.0070 C   0  0  0  0  0  0  0  0  0  0  0  0
   44.7300   38.8270   29.9890 C   0  0  0  0  0  0  0  0  0  0  0  0
  1 15  1  0
  2  3  1  0
  2  8  1  0
  3  9  1  0
  3  8  1  0
  3 12  1  0
  5  1  1  0
  8  6  1  0
  8 11  1  0
 10 11  1  0
 11  4  1  0
 12 10  1  0
 13 14  2  0
 14  4  1  0
 14  7  1  0
 15  9  1  0
M  END
$$$$

     RDKit          3D

 14 13  0  0  0  0  0  0  0  0999 V2000
   43.2060   36.2130   29.5900 P   0  0  0  0  0  0  0  0  0  0  0  0
   46.7650   36.0510   34.6200 C   0  0  0  0  0  0  0  0  0  0  0  0
   44.8600   37.3660   35.7680 C   0  0  0  0  0  0  0  0  0  0  0  0
   45.7680   37.3270   34.4850 C   0  0  0  0  0  0  0  0  0  0  0  0
   42.2300   37.5140   29.6450 C   0  0  0  0  0  0  0  0  0  0  0  0
   44.6200   37.6710   31.8830 N   0  0  0  0  0  0  0  0  0  0  0  0
   44.1920   36.5060   28.6580 O   0  0  0  0  0  0  0  0  0  0  0  0
   42.4530   35.1950   29.2060 O   0  0  0  0  0  0  0  0  0  0  0  0
   43.6680   34.6800   33.1070 O   0  0  0  0  0  0  0  0  0  0  0  0
   45.1770   37.2150   33.1070 C   0  0  0  0  0  0  0  0  0  0  0  0
   43.1560   35.5980   32.2670 C   0  0  0  0  0  0  0  0  0  0  0  0
   43.6560   36.6820   31.2860 C   0  0  0  0  0  0  0  0  0  0  0  0
   43.7950   38.3300   35.8680 O   0  0  0  0  0  0  0  0  0  0  0  0
   41.8790   35.2880   32.0970 O   0  0  0  0  0  0  0  0  0  0  0  0
  1  5  1  0
  1 12  1  0
  3 13  1  0
  4  2  1  0
  4  3  1  0
  6 10  1  0
  7  1  2  0
  8  1  1  0
 10  4  1  0
 11  9  1  0
 12  6  1  0
 12 11  1  0
 14 11  2  0
M  END
$$$$

     RDKit          3D

 15 14  0  0  0  0  0  0  0  0999 V2000
   42.4830   37.0060   34.6920 O   0  0  0  0  0  0  0  0  0  0  0  0
   41.4300   35.4140   33.3140 C   0  0  0  0  0  0  0  0  0  0  0  0
   42.5760   35.9040   34.1980 C   0  0  0  0  0  0  0  0  0  0  0  0
   41.2460   33.9220   33.3620 C   0  0  0  0  0  0  0  0  0  0  0  0
   42.5090   37.2840   31.8220 C   0  0  0  0  0  0  0  0  0  0  0  0
   44.0330   36.1270   29.5930 O   0  0  0  0  0  0  0  0  0  0  0  0
   44.8150   35.2740   36.3270 C   0  0  0  0  0  0  0  0  0  0  0  0
   40.2070   36.0210   33.7110 O   0  0  0  0  0  0  0  0  0  0  0  0
   41.7950   35.9570   31.9850 C   0  0  0  0  0  0  0  0  0  0  0  0
   41.8710   35.7190   28.5850 O   0  0  0  0  0  0  0  0  0  0  0  0
   45.6350   34.0040   34.4470 N   0  0  0  0  0  0  0  0  0  0  0  0
   44.6960   34.7960   34.8980 C   0  0  0  0  0  0  0  0  0  0  0  0
   43.5630   35.0300   34.3170 N   0  0  0  0  0  0  0  0  0  0  0  0
   42.3040   34.9910   31.0240 N   0  0  0  0  0  0  0  0  0  0  0  0
   42.6630   35.6200   29.6230 B   0  0  0  0  0  0  0  0  0  0  0  0
  2  4  1  0
  2  8  1  0
  2  3  1  0
  3 13  1  0
  3  1  2  0
  6 15  1  0
  9  5  1  0
  9  2  1  0
 10 15  2  0
 11 12  2  0
 12  7  1  0
 13 12  1  0
 14  9  1  0
 15 14  1  0
M  END
$$$$

     RDKit          3D

 15 15  0  0  0  0  0  0  0  0999 V2000
   43.8350   35.7510   32.3870 C   0  0  0  0  0  0  0  0  0  0  0  0
   43.9030   34.0020   35.3410 C   0  0  0  0  0  0  0  0  0  0  0  0
   42.5360   36.1810   28.6710 S   0  0  0  0  0  0  0  0  0  0  0  0
   44.3610   34.5520   36.3890 C   0  0  0  0  0  0  0  0  0  0  0  0
   46.5180   35.6610   35.6670 C   0  0  0  0  0  0  0  0  0  0  0  0
   45.1650   35.1190   32.1070 S   0  0  0  0  0  0  0  0  0  0  0  0
   42.7030   36.9280   30.2810 C   0  0  0  0  0  0  0  0  0  0  0  0
   42.7360   36.1080   31.3610 C   0  0  0  0  0  0  0  0  0  0  0  0
   45.4790   34.1540   33.3070 C   0  0  0  0  0  0  0  0  0  0  0  0
   41.7210   35.0000   31.3320 C   0  0  0  0  0  0  0  0  0  0  0  0
   44.7090   34.3770   34.4380 N   0  0  0  0  0  0  0  0  0  0  0  0
   42.8460   36.2380   34.7100 O   0  0  0  0  0  0  0  0  0  0  0  0
   45.0230   35.7000   34.7910 C   0  0  0  0  0  0  0  0  0  0  0  0
   43.7740   36.2980   33.7750 C   0  0  0  0  0  0  0  0  0  0  0  0
   46.5590   34.7160   36.8890 O   0  0  0  0  0  0  0  0  0  0  0  0
  1  8  1  0
  1 14  1  0
  2  4  1  0
  3  7  1  0
  5 15  1  0
  6  1  1  0
  6  9  1  0
  7  8  1  0
  8 10  1  0
  9 11  1  0
 11 13  1  0
 11  2  1  0
 13  5  1  0
 14 12  1  0
 14 13  1  0
M  END
$$$$

     RDKit          3D

 11 11  0  0  0  0  0  0  0  0999 V2000
   43.5660   34.3110   34.5980 C   0  0  0  0  0  0  0  0  0  0  0  0
   42.2310   35.4540   29.7700 O   0  0  0  0  0  0  0  0  0  0  0  0
   42.4510   36.4650   30.7090 C   0  0  0  0  0  0  0  0  0  0  0  0
   43.3070   34.9430   32.2550 N   0  0  0  0  0  0  0  0  0  0  0  0
   41.7660   37.7000   30.5470 C   0  0  0  0  0  0  0  0  0  0  0  0
   42.7620   35.1760   33.6200 C   0  0  0  0  0  0  0  0  0  0  0  0
   43.7730   37.2360   32.7300 C   0  0  0  0  0  0  0  0  0  0  0  0
   43.6310   36.2320   31.5720 C   0  0  0  0  0  0  0  0  0  0  0  0
   42.9500   36.6920   33.9100 C   0  0  0  0  0  0  0  0  0  0  0  0
   43.3200   37.4090   35.2440 C   0  0  0  0  0  0  0  0  0  0  0  0
   44.6920   37.7800   35.2500 O   0  0  0  0  0  0  0  0  0  0  0  0
  2  3  1  0
  3  5  1  0
  4  6  1  0
  6  9  1  0
  6  1  1  0
  7  9  1  0
  8  3  1  0
  8  4  1  0
  8  7  1  0
  9 10  1  0
 10 11  1  0
M  END
$$$$

     RDKit          3D

 12 11  0  0  0  0  0  0  0  0999 V2000
   45.0970   36.6800   33.3530 C   0  0  0  0  0  0  0  0  0  0  0  0
   42.6880   36.4690   30.2310 C   0  0  0  0  0  0  0  0  0  0  0  0
   44.9470   36.8170   35.9990 O   0  0  0  0  0  0  0  0  0  0  0  0
   45.8550   35.6730   34.0350 O   0  0  0  0  0  0  0  0  0  0  0  0
   42.3340   37.2640   29.3280 O   0  0  0  0  0  0  0  0  0  0  0  0
   44.3430   37.4690   34.8400 P   0  0  0  0  0  0  0  0  0  0  0  0
   44.5710   34.9670   31.5570 O   0  0  0  0  0  0  0  0  0  0  0  0
   42.2710   35.2670   30.2480 O   0  0  0  0  0  0  0  0  0  0  0  0
   44.6980   38.8910   35.2440 O   0  0  0  0  0  0  0  0  0  0  0  0
   44.1950   36.0790   32.3170 C   0  0  0  0  0  0  0  0  0  0  0  0
   42.8370   37.4410   34.8730 O   0  0  0  0  0  0  0  0  0  0  0  0
   43.6240   37.0110   31.2790 C   0  0  0  0  0  0  0  0  0  0  0  0
  1  4  1  0
  1  6  1  0
  2  8  1  0
  2 12  1  0
  5  2  2  0
  6 11  2  0
  6  9  1  0
  6  3  1  0
 10  7  1  0
 10  1  1  0
 12 10  1  0
M  END
$$$$

     RDKit          3D

  7  6  0  0  0  0  0  0  0  0999 V2000
   43.6850   37.2840   32.2130 O   0  0  0  0  0  0  0  0  0  0  0  0
   43.9930   34.6840   34.9700 S   0  0  0  0  0  0  0  0  0  0  0  0
   44.4830   35.1750   32.4190 C   0  0  0  0  0  0  0  0  0  0  0  0
   43.3470   36.1400   32.2090 C   0  0  0  0  0  0  0  0  0  0  0  0
   42.1590   35.8820   32.1860 O   0  0  0  0  0  0  0  0  0  0  0  0
   43.4130   36.1760   35.6770 N   0  0  0  0  0  0  0  0  0  0  0  0
   45.1740   35.0900   33.7200 C   0  0  0  0  0  0  0  0  0  0  0  0
  2  6  1  0
  3  7  1  0
  4  1  1  0
  4  3  1  0
  5  4  2  0
  7  2  1  0
M  END
$$$$

     RDKit          3D

 26 29  0  0  0  0  0  0  0  0999 V2000
   44.1900   37.0510   33.2550 C   0  0  0  0  0  0  0  0  0  0  0  0
   44.1580   38.8480   30.8330 N   0  0  0  0  0  0  0  0  0  0  0  0
   45.1550   38.0800   33.0980 C   0  0  0  0  0  0  0  0  0  0  0  0
   43.7110   35.9640   31.0590 N   0  0  0  0  0  0  0  0  0  0  0  0
   42.3220   40.0310   29.6560 C   0  0  0  0  0  0  0  0  0  0  0  0
   42.0400   35.9530   27.6050 S   0  0  0  0  0  0  0  0  0  0  0  0
   45.0360   35.5380   30.8610 C   0  0  0  0  0  0  0  0  0  0  0  0
   42.7300   38.7680   30.4150 C   0  0  0  0  0  0  0  0  0  0  0  0
   43.2830   36.1640   32.4150 C   0  0  0  0  0  0  0  0  0  0  0  0
   42.8110   36.1650   29.9930 C   0  0  0  0  0  0  0  0  0  0  0  0
   42.3760   37.5730   29.6330 C   0  0  0  0  0  0  0  0  0  0  0  0
   43.2030   35.4670   34.3660 C   0  0  0  0  0  0  0  0  0  0  0  0
   42.6440   33.2250   34.4740 C   0  0  0  0  0  0  0  0  0  0  0  0
   42.8530   34.3480   35.2660 N   0  0  0  0  0  0  0  0  0  0  0  0
   45.0150   39.7730   30.0770 C   0  0  0  0  0  0  0  0  0  0  0  0
   42.4200   35.2150   29.2610 N   0  0  0  0  0  0  0  0  0  0  0  0
   45.6070   35.0740   32.0350 O   0  0  0  0  0  0  0  0  0  0  0  0
   45.4830   38.8520   34.2390 C   0  0  0  0  0  0  0  0  0  0  0  0
   41.9060   37.6440   28.1560 C   0  0  0  0  0  0  0  0  0  0  0  0
   43.7300   36.6990   34.5380 C   0  0  0  0  0  0  0  0  0  0  0  0
   43.9610   37.5680   35.6270 C   0  0  0  0  0  0  0  0  0  0  0  0
   43.9220   40.7980   29.1490 S   0  0  0  0  0  0  0  0  0  0  0  0
   43.0640   34.9880   33.0440 O   0  0  0  0  0  0  0  0  0  0  0  0
   41.5830   33.2570   33.7270 C   0  0  0  0  0  0  0  0  0  0  0  0
   41.3290   33.5570   32.4010 O   0  0  0  0  0  0  0  0  0  0  0  0
   44.8140   38.6990   35.4840 C   0  0  0  0  0  0  0  0  0  0  0  0
  1 20  1  0
  3  1  2  0
  3 18  1  0
  6 19  1  0
  6 16  1  0
  7  4  1  0
  7 17  1  0
  8  5  1  0
  8  2  1  0
  9  4  1  0
  9 23  1  0
  9  1  1  0
 10  4  1  0
 11 19  1  0
 11 10  1  0
 11  8  1  0
 12 20  1  0
 12 14  1  0
 13 14  1  0
 15  2  1  0
 16 10  1  0
 18 26  2  0
 20 21  2  0
 22  5  1  0
 22 15  1  0
 23 12  1  0
 24 13  1  0
 25 24  1  0
 26 21  1  0
M  END
$$$$

     RDKit          3D

  6  5  0  0  0  0  0  0  0  0999 V2000
   44.8660   35.5650   32.1340 O   0  0  0  0  0  0  0  0  0  0  0  0
   44.0180   34.3320   34.5720 N   0  0  0  0  0  0  0  0  0  0  0  0
   43.4360   35.4710   32.3510 C   0  0  0  0  0  0  0  0  0  0  0  0
   43.2270   37.2080   34.6550 S   0  0  0  0  0  0  0  0  0  0  0  0
   43.1060   34.3260   33.3430 C   0  0  0  0  0  0  0  0  0  0  0  0
   42.9720   36.8330   32.8930 C   0  0  0  0  0  0  0  0  0  0  0  0
  3  1  1  0
  3  6  1  0
  3  5  1  0
  5  2  1  0
  6  4  1  0
M  END
$$$$

     RDKit          3D

 10 10  0  0  0  0  0  0  0  0999 V2000
   44.4990   36.1160   32.3470 C   0  0  0  0  0  0  0  0  0  0  0  0
   43.3000   37.4630   34.1430 O   0  0  0  0  0  0  0  0  0  0  0  0
   44.5440   35.2650   34.5650 C   0  0  0  0  0  0  0  0  0  0  0  0
   44.4250   36.7310   34.9230 C   0  0  0  0  0  0  0  0  0  0  0  0
   43.2510   36.9690   32.8120 C   0  0  0  0  0  0  0  0  0  0  0  0
   44.0630   37.4110   36.5810 S   0  0  0  0  0  0  0  0  0  0  0  0
   43.3190   34.5620   34.5450 O   0  0  0  0  0  0  0  0  0  0  0  0
   45.1590   35.1850   33.1470 C   0  0  0  0  0  0  0  0  0  0  0  0
   46.5810   34.8850   33.3510 O   0  0  0  0  0  0  0  0  0  0  0  0
   44.5390   36.2720   30.8810 O   0  0  0  0  0  0  0  0  0  0  0  0
  1 10  1  0
  1  5  1  0
  1  8  1  0
  2  4  1  0
  3  7  1  0
  3  4  1  0
  4  6  1  0
  5  2  1  0
  8  9  1  0
  8  3  1  0
M  END
$$$$

     RDKit          3D

 19 19  0  0  0  0  0  0  0  0999 V2000
   42.2010   34.1280   33.4120 N   0  0  0  0  0  0  0  0  0  0  0  0
   41.0980   33.1720   33.6110 C   0  0  0  0  0  0  0  0  0  0  0  0
   42.6460   35.3960   30.5680 C   0  0  0  0  0  0  0  0  0  0  0  0
   46.8330   35.6770   33.7350 C   0  0  0  0  0  0  0  0  0  0  0  0
   45.4980   37.2620   34.9800 C   0  0  0  0  0  0  0  0  0  0  0  0
   44.0780   35.4820   31.1350 C   0  0  0  0  0  0  0  0  0  0  0  0
   41.3530   36.2510   33.6230 O   0  0  0  0  0  0  0  0  0  0  0  0
   44.7240   38.4220   37.1080 O   0  0  0  0  0  0  0  0  0  0  0  0
   45.0070   35.1960   30.3280 O   0  0  0  0  0  0  0  0  0  0  0  0
   41.7340   35.4470   32.8700 C   0  0  0  0  0  0  0  0  0  0  0  0
   44.6760   37.2610   36.0970 N   0  0  0  0  0  0  0  0  0  0  0  0
   44.1870   36.1290   36.7500 O   0  0  0  0  0  0  0  0  0  0  0  0
   42.3860   35.0180   29.3800 O   0  0  0  0  0  0  0  0  0  0  0  0
   45.9560   34.9300   32.9810 C   0  0  0  0  0  0  0  0  0  0  0  0
   46.7050   36.3230   35.1280 C   0  0  0  0  0  0  0  0  0  0  0  0
   44.7340   35.7910   32.6400 C   0  0  0  0  0  0  0  0  0  0  0  0
   48.0490   36.7690   35.0180 C   0  0  0  0  0  0  0  0  0  0  0  0
   41.6840   35.3430   31.3490 N   0  0  0  0  0  0  0  0  0  0  0  0
   44.7140   37.0980   33.8240 C   0  0  0  0  0  0  0  0  0  0  0  0
  1  2  1  0
  3  6  1  0
  3 18  1  0
  4 15  1  0
  5 15  1  0
  5 11  1  0
  6 16  1  0
  9  6  2  0
 10  1  1  0
 10  7  2  0
 11 12  2  0
 11  8  2  0
 13  3  2  0
 14  4  1  0
 16 14  1  0
 16 19  2  0
 17 15  1  0
 18 10  1  0
 19  5  1  0
M  END
$$$$

     RDKit          3D

  5  4  0  0  0  0  0  0  0  0999 V2000
   47.0860   37.8510   31.0660 C   0  0  0  0  0  0  0  0  0  0  0  0
   46.2430   39.0360   30.8910 C   0  0  0  0  0  0  0  0  0  0  0  0
   46.3300   39.8980   31.8760 N   0  0  0  0  0  0  0  0  0  0  0  0
   47.8700   37.2700   31.4610 N   0  0  0  0  0  0  0  0  0  0  0  0
   44.8350   38.9070   30.2550 C   0  0  0  0  0  0  0  0  0  0  0  0
  1  4  3  0
  2  1  1  0
  2  3  2  0
  5  2  1  0
M  END
$$$$

     RDKit          3D

  8  7  0  0  0  0  0  0  0  0999 V2000
   43.2830   35.6620   32.9230 N   0  0  0  0  0  0  0  0  0  0  0  0
   43.9460   34.9050   33.8690 C   0  0  0  0  0  0  0  0  0  0  0  0
   44.6350   35.4660   35.1040 C   0  0  0  0  0  0  0  0  0  0  0  0
   43.1510   35.2700   31.5500 C   0  0  0  0  0  0  0  0  0  0  0  0
   44.0460   37.6960   35.5050 O   0  0  0  0  0  0  0  0  0  0  0  0
   45.7360   37.4290   34.1690 O   0  0  0  0  0  0  0  0  0  0  0  0
   43.8940   33.5540   33.8320 N   0  0  0  0  0  0  0  0  0  0  0  0
   44.8510   36.9720   34.9120 C   0  0  0  0  0  0  0  0  0  0  0  0
  1  2  1  0
  2  3  1  0
  4  1  1  0
  6  8  2  0
  7  2  2  0
  8  3  1  0
  8  5  1  0
M  END
$$$$

     RDKit          3D

 10 10  0  0  0  0  0  0  0  0999 V2000
   46.4780   35.3360   32.4910 C   0  0  0  0  0  0  0  0  0  0  0  0
   41.9870   37.0450   32.9290 O   0  0  0  0  0  0  0  0  0  0  0  0
   42.9610   35.2180   31.1500 O   0  0  0  0  0  0  0  0  0  0  0  0
   43.0340   36.2330   33.4290 C   0  0  0  0  0  0  0  0  0  0  0  0
   44.9060   37.8060   33.8330 O   0  0  0  0  0  0  0  0  0  0  0  0
   44.3530   34.3110   32.8310 O   0  0  0  0  0  0  0  0  0  0  0  0
   43.0450   35.0020   32.5760 C   0  0  0  0  0  0  0  0  0  0  0  0
   45.1590   35.4210   33.2100 C   0  0  0  0  0  0  0  0  0  0  0  0
   44.4690   36.5440   32.9910 C   0  0  0  0  0  0  0  0  0  0  0  0
   45.3450   35.3360   34.6500 C   0  0  0  0  0  0  0  0  0  0  0  0
  1  8  1  0
  4  2  1  0
  6  8  1  0
  7  3  1  0
  7  6  1  0
  7  4  1  0
  8 10  1  0
  9  8  1  0
  9  4  1  0
  9  5  1  0
M  END
$$$$
