
     RDKit          3D

 12 12  0  0  0  0  0  0  0  0999 V2000
   37.7610   41.2890   27.0970 C   0  0  0  0  0  0  0  0  0  0  0  0
   35.8520   43.3920   25.1400 O   0  0  0  0  0  0  0  0  0  0  0  0
   38.5900   38.6510   28.5690 N   0  0  0  0  0  0  0  0  0  0  0  0
   39.1550   40.0260   28.6370 C   0  0  0  0  0  0  0  0  0  0  0  0
   37.4100   42.6080   26.6610 O   0  0  0  0  0  0  0  0  0  0  0  0
   39.0210   37.7370   29.6460 C   0  0  0  0  0  0  0  0  0  0  0  0
   37.0360   40.2970   26.2050 C   0  0  0  0  0  0  0  0  0  0  0  0
   37.2140   39.1270   26.2030 O   0  0  0  0  0  0  0  0  0  0  0  0
   39.2030   40.9670   27.4380 C   0  0  0  0  0  0  0  0  0  0  0  0
   40.5600   39.9340   28.9870 N   0  0  0  0  0  0  0  0  0  0  0  0
   36.4970   42.5550   25.7070 C   0  0  0  0  0  0  0  0  0  0  0  0
   36.0940   41.0590   25.3350 C   0  0  0  0  0  0  0  0  0  0  0  0
  1  9  1  0
  2 11  2  0
  3  4  1  0
  3  6  1  0
  4 10  1  0
  5  1  1  0
  7  1  1  0
  8  7  2  0
  9  4  1  0
 11  5  1  0
 12 11  1  0
 12  7  1  0
M  END
$$$$

     RDKit          3D

  7  6  0  0  0  0  0  0  0  0999 V2000
   40.6780   41.4050   26.2650 O   0  0  0  0  0  0  0  0  0  0  0  0
   39.8610   40.1570   28.3130 C   0  0  0  0  0  0  0  0  0  0  0  0
   38.5580   39.5340   28.8610 C   0  0  0  0  0  0  0  0  0  0  0  0
   37.6840   39.2500   27.7450 N   0  0  0  0  0  0  0  0  0  0  0  0
   38.7380   38.2500   29.6940 C   0  0  0  0  0  0  0  0  0  0  0  0
   38.5130   40.7670   26.3130 O   0  0  0  0  0  0  0  0  0  0  0  0
   39.6870   40.8430   26.8730 C   0  0  0  0  0  0  0  0  0  0  0  0
  1  7  2  0
  2  3  1  0
  3  5  1  0
  4  3  1  0
  6  7  1  0
  7  2  1  0
M  END
$$$$

     RDKit          3D

  5  4  0  0  0  0  0  0  0  0999 V2000
   38.0020   40.6630   27.4670 C   0  0  0  0  0  0  0  0  0  0  0  0
   39.0810   38.8380   28.7290 N   0  0  0  0  0  0  0  0  0  0  0  0
   38.1200   40.2790   25.9810 C   0  0  0  0  0  0  0  0  0  0  0  0
   39.0850   40.0040   28.3120 C   0  0  0  0  0  0  0  0  0  0  0  0
   38.7420   37.9560   29.8590 C   0  0  0  0  0  0  0  0  0  0  0  0
  1  4  1  0
  2  5  1  0
  3  1  1  0
  4  2  1  0
M  END
$$$$

     RDKit          3D

  6  5  0  0  0  0  0  0  0  0999 V2000
   38.7460   37.7720   29.3740 S   0  0  0  0  0  0  0  0  0  0  0  0
   35.9570   41.1860   25.8870 S   0  0  0  0  0  0  0  0  0  0  0  0
   38.4360   38.6950   27.8790 C   0  0  0  0  0  0  0  0  0  0  0  0
   37.5890   40.6040   25.5250 C   0  0  0  0  0  0  0  0  0  0  0  0
   38.0020   40.1770   27.8780 C   0  0  0  0  0  0  0  0  0  0  0  0
   38.4940   40.9270   26.6610 C   0  0  0  0  0  0  0  0  0  0  0  0
  3  1  1  0
  4  2  1  0
  4  6  1  0
  5  3  1  0
  6  5  1  0
M  END
$$$$

     RDKit          3D

 14 14  0  0  0  0  0  0  0  0999 V2000
   40.3900   38.8050   29.6960 C   0  0  0  0  0  0  0  0  0  0  0  0
   38.3680   39.1300   28.8140 N   0  0  0  0  0  0  0  0  0  0  0  0
   38.9630   38.4900   29.6620 C   0  0  0  0  0  0  0  0  0  0  0  0
   38.3180   37.4940   30.5680 C   0  0  0  0  0  0  0  0  0  0  0  0
   40.0030   39.8590   24.7890 O   0  0  0  0  0  0  0  0  0  0  0  0
   37.6610   41.2800   26.9860 C   0  0  0  0  0  0  0  0  0  0  0  0
   39.0150   40.5930   26.9790 N   0  0  0  0  0  0  0  0  0  0  0  0
   35.9370   42.5080   25.5630 C   0  0  0  0  0  0  0  0  0  0  0  0
   40.6870   39.8880   28.6750 C   0  0  0  0  0  0  0  0  0  0  0  0
   34.7620   42.2560   25.1180 O   0  0  0  0  0  0  0  0  0  0  0  0
   39.5810   40.2900   25.6480 C   0  0  0  0  0  0  0  0  0  0  0  0
   36.1560   43.5880   26.1350 N   0  0  0  0  0  0  0  0  0  0  0  0
   39.2900   39.9530   28.1120 C   0  0  0  0  0  0  0  0  0  0  0  0
   36.7400   41.1640   25.6510 C   0  0  0  0  0  0  0  0  0  0  0  0
  2  3  1  0
  3  1  1  0
  3  4  1  0
  5 11  1  0
  7  6  1  0
  7 13  1  0
  8 14  1  0
  8 12  1  0
  9  1  2  0
 10  8  2  0
 11  7  1  0
 13  9  1  0
 13  2  2  0
 14  6  1  0
M  END
$$$$

     RDKit          3D

 17 17  0  0  0  0  0  0  0  0999 V2000
   40.3390   38.2690   30.1840 N   0  0  0  0  0  0  0  0  0  0  0  0
   38.9100   37.9970   29.9650 C   0  0  0  0  0  0  0  0  0  0  0  0
   39.8580   40.9340   26.3070 C   0  0  0  0  0  0  0  0  0  0  0  0
   35.2170   41.4610   25.4150 C   0  0  0  0  0  0  0  0  0  0  0  0
   37.4460   38.5890   25.9050 O   0  0  0  0  0  0  0  0  0  0  0  0
   38.6200   40.8570   27.2950 C   0  0  0  0  0  0  0  0  0  0  0  0
   39.3120   40.5710   29.7820 C   0  0  0  0  0  0  0  0  0  0  0  0
   36.4360   40.8880   25.9800 N   0  0  0  0  0  0  0  0  0  0  0  0
   40.5810   39.7310   29.9160 C   0  0  0  0  0  0  0  0  0  0  0  0
   38.4380   40.0390   28.6250 N   0  0  0  0  0  0  0  0  0  0  0  0
   36.9820   39.6670   25.1550 C   0  0  0  0  0  0  0  0  0  0  0  0
   38.4170   38.5170   28.6220 C   0  0  0  0  0  0  0  0  0  0  0  0
   37.4190   42.8460   26.3900 O   0  0  0  0  0  0  0  0  0  0  0  0
   40.5200   42.2280   26.2480 O   0  0  0  0  0  0  0  0  0  0  0  0
   37.2260   41.5690   27.0100 C   0  0  0  0  0  0  0  0  0  0  0  0
   34.7550   40.7320   24.2860 C   0  0  0  0  0  0  0  0  0  0  0  0
   34.6250   42.4960   25.4830 O   0  0  0  0  0  0  0  0  0  0  0  0
  2  1  1  0
  4 17  2  0
  4  8  1  0
  6  3  1  0
  6 10  1  0
  7  9  1  0
  8 15  1  0
  9  1  1  0
 10  7  1  0
 11  5  1  0
 11  8  1  0
 12 10  1  0
 12  2  1  0
 14  3  1  0
 15 13  1  0
 15  6  1  0
 16  4  1  0
M  END
$$$$

     RDKit          3D

 16 16  0  0  0  0  0  0  0  0999 V2000
   38.4610   39.5070   27.6710 N   0  0  0  0  0  0  0  0  0  0  0  0
   37.6000   39.8420   26.7040 C   0  0  0  0  0  0  0  0  0  0  0  0
   36.8610   38.8930   26.4080 O   0  0  0  0  0  0  0  0  0  0  0  0
   36.3380   41.8180   25.8470 N   0  0  0  0  0  0  0  0  0  0  0  0
   37.5010   41.3000   26.3840 C   0  0  0  0  0  0  0  0  0  0  0  0
   32.7750   42.3250   25.1160 C   0  0  0  0  0  0  0  0  0  0  0  0
   35.1000   41.4350   26.0110 C   0  0  0  0  0  0  0  0  0  0  0  0
   40.1050   38.8620   29.9860 C   0  0  0  0  0  0  0  0  0  0  0  0
   36.5190   42.8800   25.0140 C   0  0  0  0  0  0  0  0  0  0  0  0
   40.6990   41.1240   29.2670 O   0  0  0  0  0  0  0  0  0  0  0  0
   38.4640   42.0300   26.6010 O   0  0  0  0  0  0  0  0  0  0  0  0
   38.3470   40.3360   28.7880 C   0  0  0  0  0  0  0  0  0  0  0  0
   35.2370   43.0710   24.4260 C   0  0  0  0  0  0  0  0  0  0  0  0
   40.9460   39.2000   31.0960 N   0  0  0  0  0  0  0  0  0  0  0  0
   39.8840   40.2180   29.2680 C   0  0  0  0  0  0  0  0  0  0  0  0
   34.3210   42.2300   25.2150 C   0  0  0  0  0  0  0  0  0  0  0  0
  1 12  1  0
  2  1  1  0
  3  2  2  0
  4  7  1  0
  4  5  1  0
  5 11  2  0
  5  2  1  0
  8 14  1  0
  9  4  1  0
 10 15  2  0
 12 15  1  0
 13  9  1  0
 13 16  1  0
 15  8  1  0
 16  6  1  0
 16  7  1  0
M  END
$$$$

     RDKit          3D

  9  9  0  0  0  0  0  0  0  0999 V2000
   38.2800   40.0320   28.4300 C   0  0  0  0  0  0  0  0  0  0  0  0
   37.5610   40.1730   27.0800 C   0  0  0  0  0  0  0  0  0  0  0  0
   36.7720   42.6820   25.8720 O   0  0  0  0  0  0  0  0  0  0  0  0
   38.4820   40.9910   26.1740 C   0  0  0  0  0  0  0  0  0  0  0  0
   38.3300   38.6730   29.1620 C   0  0  0  0  0  0  0  0  0  0  0  0
   37.3510   38.9200   26.4410 O   0  0  0  0  0  0  0  0  0  0  0  0
   39.8530   40.8510   26.7930 C   0  0  0  0  0  0  0  0  0  0  0  0
   39.6320   40.5250   28.1770 O   0  0  0  0  0  0  0  0  0  0  0  0
   38.0950   42.4470   25.9720 C   0  0  0  0  0  0  0  0  0  0  0  0
  1  5  1  0
  2  6  1  0
  2  1  1  0
  3  9  1  0
  4  9  1  0
  4  7  1  0
  4  2  1  0
  7  8  1  0
  8  1  1  0
M  END
$$$$

     RDKit          3D

  5  4  0  0  0  0  0  0  0  0999 V2000
   37.7590   39.2720   27.4320 N   0  0  0  0  0  0  0  0  0  0  0  0
   39.6970   40.2590   28.6130 C   0  0  0  0  0  0  0  0  0  0  0  0
   39.0560   39.9280   27.2690 C   0  0  0  0  0  0  0  0  0  0  0  0
   39.3750   37.8730   29.7410 N   0  0  0  0  0  0  0  0  0  0  0  0
   39.3210   39.3480   29.7850 C   0  0  0  0  0  0  0  0  0  0  0  0
  2  5  1  0
  3  1  1  0
  3  2  1  0
  4  5  1  0
M  END
$$$$

     RDKit          3D

 13 13  0  0  0  0  0  0  0  0999 V2000
   36.9020   39.3160   24.8450 O   0  0  0  0  0  0  0  0  0  0  0  0
   38.6310   39.4090   28.1070 C   0  0  0  0  0  0  0  0  0  0  0  0
   39.8360   43.1280   27.0960 C   0  0  0  0  0  0  0  0  0  0  0  0
   39.3180   41.7650   26.8740 C   0  0  0  0  0  0  0  0  0  0  0  0
   37.3040   39.7860   25.8330 C   0  0  0  0  0  0  0  0  0  0  0  0
   39.9140   41.4240   29.1780 O   0  0  0  0  0  0  0  0  0  0  0  0
   37.8310   38.8960   26.9080 N   0  0  0  0  0  0  0  0  0  0  0  0
   35.7590   41.8460   25.8540 C   0  0  0  0  0  0  0  0  0  0  0  0
   37.0000   41.2050   25.9010 N   0  0  0  0  0  0  0  0  0  0  0  0
   39.1000   40.9340   28.1620 C   0  0  0  0  0  0  0  0  0  0  0  0
   39.2690   38.4710   29.0010 N   0  0  0  0  0  0  0  0  0  0  0  0
   40.2550   40.9870   25.8180 C   0  0  0  0  0  0  0  0  0  0  0  0
   37.7700   42.0870   26.7160 C   0  0  0  0  0  0  0  0  0  0  0  0
  1  5  2  0
  2 10  1  0
  2 11  1  0
  4  3  1  0
  4 10  1  0
  5  9  1  0
  5  7  1  0
  7  2  2  0
  8  9  1  0
  9 13  1  0
 10  6  1  0
 12  4  1  0
 13  4  1  0
M  END
$$$$

     RDKit          3D

 14 15  0  0  0  0  0  0  0  0999 V2000
   35.3610   39.8890   25.9230 C   0  0  0  0  0  0  0  0  0  0  0  0
   38.7830   40.8490   29.1850 N   0  0  0  0  0  0  0  0  0  0  0  0
   40.3540   40.6030   30.9850 O   0  0  0  0  0  0  0  0  0  0  0  0
   35.3750   41.3100   25.4780 C   0  0  0  0  0  0  0  0  0  0  0  0
   37.2580   40.1180   27.1470 C   0  0  0  0  0  0  0  0  0  0  0  0
   38.1150   39.9530   28.3600 C   0  0  0  0  0  0  0  0  0  0  0  0
   39.3270   40.0620   25.9500 N   0  0  0  0  0  0  0  0  0  0  0  0
   39.2780   38.6840   29.9460 C   0  0  0  0  0  0  0  0  0  0  0  0
   36.8230   41.8820   25.4620 C   0  0  0  0  0  0  0  0  0  0  0  0
   38.4020   38.6380   28.8360 C   0  0  0  0  0  0  0  0  0  0  0  0
   39.4680   40.0350   30.1190 C   0  0  0  0  0  0  0  0  0  0  0  0
   34.1160   38.9240   25.0580 S   0  0  0  0  0  0  0  0  0  0  0  0
   36.1800   39.3880   26.7380 N   0  0  0  0  0  0  0  0  0  0  0  0
   37.9610   40.8000   25.9570 C   0  0  0  0  0  0  0  0  0  0  0  0
  1 13  1  0
  2 11  1  0
  4  1  1  0
  5  6  1  0
  6 10  1  0
  6  2  2  0
  8 11  1  0
  9  4  1  0
  9 14  1  0
 10  8  2  0
 11  3  2  0
 12  1  2  0
 13  5  1  0
 14  7  1  0
 14  5  1  0
M  END
$$$$

     RDKit          3D

 17 17  0  0  0  0  0  0  0  0999 V2000
   36.4140   42.0840   25.7530 C   0  0  0  0  0  0  0  0  0  0  0  0
   38.1290   38.2840   29.6210 C   0  0  0  0  0  0  0  0  0  0  0  0
   38.7490   40.7110   27.0880 C   0  0  0  0  0  0  0  0  0  0  0  0
   35.4780   40.5590   24.2470 C   0  0  0  0  0  0  0  0  0  0  0  0
   40.1240   40.9550   26.5120 C   0  0  0  0  0  0  0  0  0  0  0  0
   37.4520   41.4200   24.9480 N   0  0  0  0  0  0  0  0  0  0  0  0
   34.4550   40.0610   23.4120 C   0  0  0  0  0  0  0  0  0  0  0  0
   39.4380   37.6220   29.9250 C   0  0  0  0  0  0  0  0  0  0  0  0
   35.1150   41.2600   25.5290 C   0  0  0  0  0  0  0  0  0  0  0  0
   37.0890   37.6260   29.6980 O   0  0  0  0  0  0  0  0  0  0  0  0
   38.0030   40.3360   25.8680 C   0  0  0  0  0  0  0  0  0  0  0  0
   38.7470   39.7730   28.1810 N   0  0  0  0  0  0  0  0  0  0  0  0
   36.7870   40.5250   23.9940 C   0  0  0  0  0  0  0  0  0  0  0  0
   38.8920   39.7130   23.2390 O   0  0  0  0  0  0  0  0  0  0  0  0
   37.9730   39.5770   29.1010 C   0  0  0  0  0  0  0  0  0  0  0  0
   37.8090   39.1160   25.5480 O   0  0  0  0  0  0  0  0  0  0  0  0
   37.6000   39.6750   23.0180 C   0  0  0  0  0  0  0  0  0  0  0  0
  2 10  2  0
  2  8  1  0
  3  5  1  0
  3 12  1  0
  4  7  1  0
  4  9  1  0
  6  1  1  0
  6 11  1  0
  9  1  1  0
 11  3  1  0
 12 15  1  0
 13 17  1  0
 13  4  1  0
 13  6  1  0
 15  2  1  0
 16 11  2  0
 17 14  1  0
M  END
$$$$

     RDKit          3D

 13 13  0  0  0  0  0  0  0  0999 V2000
   39.5760   38.4300   28.7620 N   0  0  0  0  0  0  0  0  0  0  0  0
   36.4530   42.2800   24.5870 C   0  0  0  0  0  0  0  0  0  0  0  0
   37.8990   39.5770   27.2590 C   0  0  0  0  0  0  0  0  0  0  0  0
   35.5140   41.7170   25.4320 C   0  0  0  0  0  0  0  0  0  0  0  0
   37.7450   42.3380   25.0460 C   0  0  0  0  0  0  0  0  0  0  0  0
   35.9170   40.8010   26.5390 C   0  0  0  0  0  0  0  0  0  0  0  0
   37.7660   38.6570   26.5230 O   0  0  0  0  0  0  0  0  0  0  0  0
   34.1400   41.6090   25.2890 O   0  0  0  0  0  0  0  0  0  0  0  0
   39.4770   40.8350   28.2280 C   0  0  0  0  0  0  0  0  0  0  0  0
   36.9890   40.9190   26.7370 N   0  0  0  0  0  0  0  0  0  0  0  0
   38.5950   39.7220   28.5690 C   0  0  0  0  0  0  0  0  0  0  0  0
   38.0500   41.7390   26.1960 C   0  0  0  0  0  0  0  0  0  0  0  0
   40.2450   41.7380   28.8560 C   0  0  0  0  0  0  0  0  0  0  0  0
  2  5  1  0
  2  4  2  0
  3 11  1  0
  4  6  1  0
  5 12  2  0
  6 10  1  0
  7  3  2  0
  8  4  1  0
  9 11  1  0
  9 13  2  0
 10  3  1  0
 11  1  1  0
 12 10  1  0
M  END
$$$$

     RDKit          3D

 12 12  0  0  0  0  0  0  0  0999 V2000
   38.6980   39.9490   27.3530 C   0  0  0  0  0  0  0  0  0  0  0  0
   37.0600   41.3410   26.4290 C   0  0  0  0  0  0  0  0  0  0  0  0
   36.3450   40.2270   25.7120 C   0  0  0  0  0  0  0  0  0  0  0  0
   39.3090   38.8860   28.2890 N   0  0  0  0  0  0  0  0  0  0  0  0
   36.8350   42.5590   25.4970 C   0  0  0  0  0  0  0  0  0  0  0  0
   36.9090   39.0640   25.4270 O   0  0  0  0  0  0  0  0  0  0  0  0
   39.7910   42.7080   27.5530 C   0  0  0  0  0  0  0  0  0  0  0  0
   38.7890   40.8500   26.2040 C   0  0  0  0  0  0  0  0  0  0  0  0
   40.4510   43.8920   27.6230 C   0  0  0  0  0  0  0  0  0  0  0  0
   38.5090   38.4390   29.4050 C   0  0  0  0  0  0  0  0  0  0  0  0
   39.5460   42.1000   26.2050 N   0  0  0  0  0  0  0  0  0  0  0  0
   37.3630   40.8490   28.1690 S   0  0  0  0  0  0  0  0  0  0  0  0
  1 12  1  0
  1  4  1  0
  2  5  1  0
  2 12  1  0
  3  2  1  0
  4 10  1  0
  6  3  1  0
  7  9  1  0
  8 11  1  0
  8  2  1  0
  8  1  1  0
 11  7  2  3
M  END
$$$$

     RDKit          3D

 23 25  0  0  0  0  0  0  0  0999 V2000
   37.5940   40.6820   22.7230 C   0  0  0  0  0  0  0  0  0  0  0  0
   36.3150   41.2600   25.2630 C   0  0  0  0  0  0  0  0  0  0  0  0
   39.9220   41.0160   25.2040 O   0  0  0  0  0  0  0  0  0  0  0  0
   40.4970   38.5960   30.9030 C   0  0  0  0  0  0  0  0  0  0  0  0
   37.8320   40.4660   26.8700 C   0  0  0  0  0  0  0  0  0  0  0  0
   37.3430   38.3990   29.3610 O   0  0  0  0  0  0  0  0  0  0  0  0
   37.2690   39.1820   25.0490 O   0  0  0  0  0  0  0  0  0  0  0  0
   33.4970   41.2940   25.6400 S   0  0  0  0  0  0  0  0  0  0  0  0
   34.7070   42.7140   23.8270 C   0  0  0  0  0  0  0  0  0  0  0  0
   39.0590   38.3970   30.7390 C   0  0  0  0  0  0  0  0  0  0  0  0
   38.8020   39.7910   27.3900 N   0  0  0  0  0  0  0  0  0  0  0  0
   34.1680   41.0970   22.2220 C   0  0  0  0  0  0  0  0  0  0  0  0
   35.4170   43.2710   22.6360 C   0  0  0  0  0  0  0  0  0  0  0  0
   36.8170   41.5780   23.7160 C   0  0  0  0  0  0  0  0  0  0  0  0
   37.4880   41.1250   27.7340 C   0  0  0  0  0  0  0  0  0  0  0  0
   40.9920   39.6830   30.2510 N   0  0  0  0  0  0  0  0  0  0  0  0
   37.6360   40.4870   25.3960 C   0  0  0  0  0  0  0  0  0  0  0  0
   38.9010   40.7950   24.6550 C   0  0  0  0  0  0  0  0  0  0  0  0
   35.0060   42.4010   25.2960 C   0  0  0  0  0  0  0  0  0  0  0  0
   38.7230   38.4890   29.3240 C   0  0  0  0  0  0  0  0  0  0  0  0
   39.0520   39.7980   28.7670 C   0  0  0  0  0  0  0  0  0  0  0  0
   35.3920   41.7310   22.8620 C   0  0  0  0  0  0  0  0  0  0  0  0
   38.9060   40.5340   23.3230 N   0  0  0  0  0  0  0  0  0  0  0  0
  1 23  1  0
  1 14  1  0
  2 19  1  0
  2 17  1  0
  5 11  2  3
  5 15  1  0
  7 17  1  0
  9 19  1  0
 10  4  1  0
 11 21  1  0
 12 22  1  0
 13 22  1  0
 13  9  1  0
 14  2  1  0
 16  4  1  0
 17  5  1  0
 18  3  2  0
 18 17  1  0
 19  8  1  0
 20  6  1  0
 20 10  1  0
 21 20  1  0
 22 14  1  0
 22  9  1  0
 23 18  1  0
M  END
$$$$

     RDKit          3D

 13 12  0  0  0  0  0  0  0  0999 V2000
   37.9760   41.7130   24.8230 C   0  0  0  0  0  0  0  0  0  0  0  0
   38.5880   39.5430   28.9180 C   0  0  0  0  0  0  0  0  0  0  0  0
   40.3360   43.0640   27.0900 O   0  0  0  0  0  0  0  0  0  0  0  0
   40.4650   41.4940   29.0150 O   0  0  0  0  0  0  0  0  0  0  0  0
   38.8250   38.1910   29.5220 C   0  0  0  0  0  0  0  0  0  0  0  0
   38.2450   41.9190   27.4460 O   0  0  0  0  0  0  0  0  0  0  0  0
   38.2910   39.2980   25.4970 O   0  0  0  0  0  0  0  0  0  0  0  0
   40.6000   40.6020   26.6740 O   0  0  0  0  0  0  0  0  0  0  0  0
   36.2110   40.7300   26.9880 C   0  0  0  0  0  0  0  0  0  0  0  0
   39.9850   41.6970   27.6090 P   0  0  0  0  0  0  0  0  0  0  0  0
   38.2820   40.4020   25.7440 C   0  0  0  0  0  0  0  0  0  0  0  0
   37.7680   40.6960   26.9600 C   0  0  0  0  0  0  0  0  0  0  0  0
   38.4050   39.9950   27.8220 C   0  0  0  0  0  0  0  0  0  0  0  0
  1 11  1  0
  2  5  1  0
  3 10  1  0
  6 10  1  0
  7 11  2  0
  8 10  2  0
 10  4  1  0
 11 12  1  0
 12  9  1  0
 12  6  1  0
 12 13  1  0
 13  2  1  0
M  END
$$$$

     RDKit          3D

 13 13  0  0  0  0  0  0  0  0999 V2000
   35.2140   40.9380   25.2720 C   0  0  0  0  0  0  0  0  0  0  0  0
   37.6880   41.3230   27.3790 C   0  0  0  0  0  0  0  0  0  0  0  0
   39.1620   39.8920   28.2840 C   0  0  0  0  0  0  0  0  0  0  0  0
   38.7010   38.9140   30.3990 C   0  0  0  0  0  0  0  0  0  0  0  0
   37.4030   40.9590   23.7150 C   0  0  0  0  0  0  0  0  0  0  0  0
   36.9230   38.8960   25.1810 C   0  0  0  0  0  0  0  0  0  0  0  0
   36.8270   40.6180   25.1680 S   0  0  0  0  0  0  0  0  0  0  0  0
   40.9110   39.4640   29.8100 N   0  0  0  0  0  0  0  0  0  0  0  0
   37.2230   41.8520   26.1030 O   0  0  0  0  0  0  0  0  0  0  0  0
   40.0560   38.9490   30.6910 C   0  0  0  0  0  0  0  0  0  0  0  0
   40.4780   39.9310   28.6350 C   0  0  0  0  0  0  0  0  0  0  0  0
   38.7420   40.3530   26.9340 C   0  0  0  0  0  0  0  0  0  0  0  0
   38.2460   39.3810   29.1720 C   0  0  0  0  0  0  0  0  0  0  0  0
  3 11  2  0
  3 13  1  0
  4 10  1  0
  5  7  1  0
  7  6  1  0
  7  1  1  0
  7  9  1  0
  8 10  2  0
  9  2  1  0
 11  8  1  0
 12  2  1  0
 12  3  1  0
 13  4  2  0
M  END
$$$$

     RDKit          3D

 14 14  0  0  0  0  0  0  0  0999 V2000
   38.4040   39.9340   27.5840 C   0  0  0  0  0  0  0  0  0  0  0  0
   37.3330   41.8790   26.3920 C   0  0  0  0  0  0  0  0  0  0  0  0
   37.8670   43.9930   25.3950 O   0  0  0  0  0  0  0  0  0  0  0  0
   37.6710   38.9000   28.1070 O   0  0  0  0  0  0  0  0  0  0  0  0
   37.2920   42.8180   25.2800 C   0  0  0  0  0  0  0  0  0  0  0  0
   39.2250   39.3780   30.7140 O   0  0  0  0  0  0  0  0  0  0  0  0
   40.1510   41.5410   29.1970 C   0  0  0  0  0  0  0  0  0  0  0  0
   36.4040   41.0930   26.0550 O   0  0  0  0  0  0  0  0  0  0  0  0
   39.6420   39.1930   29.3330 C   0  0  0  0  0  0  0  0  0  0  0  0
   39.3880   40.8130   25.5950 O   0  0  0  0  0  0  0  0  0  0  0  0
   39.5390   38.1700   30.1110 C   0  0  0  0  0  0  0  0  0  0  0  0
   39.7790   40.1870   28.4820 C   0  0  0  0  0  0  0  0  0  0  0  0
   40.0940   42.7260   28.3540 O   0  0  0  0  0  0  0  0  0  0  0  0
   38.5790   40.9950   26.4310 C   0  0  0  0  0  0  0  0  0  0  0  0
  1  4  1  0
  1 12  1  0
  2  8  1  0
  2 14  1  0
  5  3  1  0
  5  2  1  0
  9 12  1  0
  9 11  1  0
  9  6  1  0
 10 14  2  0
 11  6  1  0
 12  7  1  0
 13  7  1  0
 14  1  1  0
M  END
$$$$

     RDKit          3D

 11 10  0  0  0  0  0  0  0  0999 V2000
   38.1370   40.7230   27.9280 C   0  0  0  0  0  0  0  0  0  0  0  0
   37.4760   39.0360   25.2970 O   0  0  0  0  0  0  0  0  0  0  0  0
   37.8400   41.9010   28.2640 O   0  0  0  0  0  0  0  0  0  0  0  0
   39.3000   41.2370   25.6970 C   0  0  0  0  0  0  0  0  0  0  0  0
   38.0710   41.7650   25.2870 O   0  0  0  0  0  0  0  0  0  0  0  0
   39.2800   40.4730   26.9930 C   0  0  0  0  0  0  0  0  0  0  0  0
   37.1170   40.3950   25.1470 S   0  0  0  0  0  0  0  0  0  0  0  0
   35.7810   40.8730   25.2160 O   0  0  0  0  0  0  0  0  0  0  0  0
   38.6960   38.5820   29.2590 C   0  0  0  0  0  0  0  0  0  0  0  0
   37.5540   39.4490   28.6250 C   0  0  0  0  0  0  0  0  0  0  0  0
   39.9290   39.2890   28.9890 N   0  0  0  0  0  0  0  0  0  0  0  0
  1  3  2  0
  1 10  1  0
  4  6  1  0
  5  4  1  0
  6  1  1  0
  7  8  2  0
  7  5  1  0
  7  2  1  0
 10  9  1  0
 11  9  1  0
M  END
$$$$

     RDKit          3D

 16 16  0  0  0  0  0  0  0  0999 V2000
   39.9460   41.8830   28.0020 C   0  0  0  0  0  0  0  0  0  0  0  0
   38.6420   40.3430   25.8990 C   0  0  0  0  0  0  0  0  0  0  0  0
   39.6930   40.0270   26.7020 N   0  0  0  0  0  0  0  0  0  0  0  0
   37.3790   38.5820   27.3020 O   0  0  0  0  0  0  0  0  0  0  0  0
   41.0810   42.3610   28.7200 O   0  0  0  0  0  0  0  0  0  0  0  0
   40.7470   41.0580   26.9110 C   0  0  0  0  0  0  0  0  0  0  0  0
   37.2210   39.4300   26.0920 S   0  0  0  0  0  0  0  0  0  0  0  0
   34.2700   42.0330   25.4100 C   0  0  0  0  0  0  0  0  0  0  0  0
   42.2600   41.9290   28.5250 C   0  0  0  0  0  0  0  0  0  0  0  0
   36.1540   40.8590   26.4860 C   0  0  0  0  0  0  0  0  0  0  0  0
   36.9590   38.5690   24.8240 O   0  0  0  0  0  0  0  0  0  0  0  0
   38.7870   41.8430   28.1670 O   0  0  0  0  0  0  0  0  0  0  0  0
   35.6160   41.3930   25.1590 C   0  0  0  0  0  0  0  0  0  0  0  0
   43.2460   41.6050   29.6760 C   0  0  0  0  0  0  0  0  0  0  0  0
   42.5540   41.4810   27.1020 C   0  0  0  0  0  0  0  0  0  0  0  0
   42.8280   40.8630   30.7030 N   0  0  0  0  0  0  0  0  0  0  0  0
  1 12  2  0
  1  5  1  0
  2  7  1  0
  2  3  1  0
  6  3  1  0
  6 15  1  0
  6  1  1  0
  7 10  1  0
  7  4  2  0
  9  5  1  0
  9 14  1  0
 11  7  2  0
 13  8  1  0
 13 10  1  0
 14 16  1  0
 15  9  1  0
M  END
$$$$
