
     RDKit          3D

 15 14  0  0  0  0  0  0  0  0999 V2000
   42.0450   40.5000   30.2470 O   0  0  0  0  0  0  0  0  0  0  0  0
   41.6490   41.4410   31.0120 C   0  0  0  0  0  0  0  0  0  0  0  0
   40.1860   40.8090   27.4610 C   0  0  0  0  0  0  0  0  0  0  0  0
   39.9310   44.2820   32.2320 C   0  0  0  0  0  0  0  0  0  0  0  0
   40.2460   44.1200   30.8420 C   0  0  0  0  0  0  0  0  0  0  0  0
   39.6950   42.1400   26.9070 C   0  0  0  0  0  0  0  0  0  0  0  0
   39.7960   45.4170   32.5820 O   0  0  0  0  0  0  0  0  0  0  0  0
   40.6650   42.8850   26.6330 O   0  0  0  0  0  0  0  0  0  0  0  0
   39.7620   40.7120   28.9440 C   0  0  0  0  0  0  0  0  0  0  0  0
   39.6070   43.5890   29.7730 C   0  0  0  0  0  0  0  0  0  0  0  0
   38.5290   42.4250   26.7780 O   0  0  0  0  0  0  0  0  0  0  0  0
   40.2990   41.9660   31.0430 C   0  0  0  0  0  0  0  0  0  0  0  0
   41.9870   41.8540   32.1110 O   0  0  0  0  0  0  0  0  0  0  0  0
   39.9130   42.0840   29.6750 C   0  0  0  0  0  0  0  0  0  0  0  0
   39.9030   43.2670   32.9990 O   0  0  0  0  0  0  0  0  0  0  0  0
  1  2  2  0
  2 12  1  0
  2 13  1  0
  3  9  1  0
  4  7  2  0
  4 15  1  0
  5  4  1  0
  6  3  1  0
  8  6  2  0
  9 14  1  0
 10  5  1  0
 11  6  1  0
 14 10  1  0
 14 12  1  0
M  END
$$$$

     RDKit          3D

 18 18  0  0  0  0  0  0  0  0999 V2000
   43.5760   40.7920   29.8710 C   0  0  0  0  0  0  0  0  0  0  0  0
   40.3230   41.8220   26.9960 C   0  0  0  0  0  0  0  0  0  0  0  0
   33.5720   42.9920   28.0810 Br  0  0  0  0  0  0  0  0  0  0  0  0
   35.1530   41.3250   26.4860 C   0  0  0  0  0  0  0  0  0  0  0  0
   40.3400   40.5010   27.6550 O   0  0  0  0  0  0  0  0  0  0  0  0
   42.6260   40.5690   28.7330 C   0  0  0  0  0  0  0  0  0  0  0  0
   39.0820   42.6990   27.0180 N   0  0  0  0  0  0  0  0  0  0  0  0
   41.4960   42.6250   27.6270 C   0  0  0  0  0  0  0  0  0  0  0  0
   36.3180   40.6010   26.1370 C   0  0  0  0  0  0  0  0  0  0  0  0
   34.0450   41.1100   25.9120 O   0  0  0  0  0  0  0  0  0  0  0  0
   37.7320   42.1370   27.2300 C   0  0  0  0  0  0  0  0  0  0  0  0
   42.7090   41.6990   27.6650 C   0  0  0  0  0  0  0  0  0  0  0  0
   35.2970   42.3570   27.4210 C   0  0  0  0  0  0  0  0  0  0  0  0
   36.3380   39.6670   24.4750 Br  0  0  0  0  0  0  0  0  0  0  0  0
   37.5310   40.7420   26.8590 C   0  0  0  0  0  0  0  0  0  0  0  0
   36.6100   42.8530   27.6950 C   0  0  0  0  0  0  0  0  0  0  0  0
   39.2820   44.0640   26.4510 C   0  0  0  0  0  0  0  0  0  0  0  0
   38.3060   39.7280   27.1180 O   0  0  0  0  0  0  0  0  0  0  0  0
  2  7  1  0
  2  8  1  0
  2  5  1  0
  4 13  1  0
  6  1  1  0
  8 12  1  0
  9 14  1  0
  9  4  1  0
  9 15  1  0
 10  4  2  0
 11  7  1  0
 11 16  1  0
 12  6  1  0
 13 16  2  0
 13  3  1  0
 15 18  1  0
 15 11  1  0
 17  7  1  0
M  END
$$$$

     RDKit          3D

 12 13  0  0  0  0  0  0  0  0999 V2000
   38.0910   45.7920   27.3890 C   0  0  0  0  0  0  0  0  0  0  0  0
   41.0490   40.3630   29.4030 C   0  0  0  0  0  0  0  0  0  0  0  0
   41.0500   39.0860   29.7910 N   0  0  0  0  0  0  0  0  0  0  0  0
   40.2410   40.7640   28.4670 N   0  0  0  0  0  0  0  0  0  0  0  0
   38.4900   42.0280   27.3600 C   0  0  0  0  0  0  0  0  0  0  0  0
   40.6980   42.0910   28.3620 C   0  0  0  0  0  0  0  0  0  0  0  0
   41.7970   42.3690   29.2730 C   0  0  0  0  0  0  0  0  0  0  0  0
   40.2150   42.8360   27.2840 N   0  0  0  0  0  0  0  0  0  0  0  0
   41.9390   41.2680   29.9750 N   0  0  0  0  0  0  0  0  0  0  0  0
   38.6040   44.3710   27.4930 C   0  0  0  0  0  0  0  0  0  0  0  0
   40.2310   44.2640   27.2830 C   0  0  0  0  0  0  0  0  0  0  0  0
   38.1840   43.1700   26.9030 C   0  0  0  0  0  0  0  0  0  0  0  0
  2  3  1  0
  2  9  1  0
  4  2  2  0
  6  4  1  0
  6  7  1  0
  7  9  2  0
  8 11  1  0
  8  5  1  0
  8  6  1  0
 10  1  1  0
 11 10  1  0
 12  5  1  0
 12 10  1  0
M  END
$$$$

     RDKit          3D

  6  6  0  0  0  0  0  0  0  0999 V2000
   42.5210   42.5640   29.1450 C   0  0  0  0  0  0  0  0  0  0  0  0
   39.5530   41.9130   27.6170 O   0  0  0  0  0  0  0  0  0  0  0  0
   40.8830   41.3190   27.7120 P   0  0  0  0  0  0  0  0  0  0  0  0
   40.2950   41.3220   26.3970 O   0  0  0  0  0  0  0  0  0  0  0  0
   41.7050   42.7130   27.9300 O   0  0  0  0  0  0  0  0  0  0  0  0
   41.0630   40.1730   28.6180 O   0  0  0  0  0  0  0  0  0  0  0  0
  2  3  1  0
  3  5  1  0
  3  6  2  0
  4  2  1  0
  4  3  1  0
  5  1  1  0
M  END
$$$$

     RDKit          3D

  6  5  0  0  0  0  0  0  0  0999 V2000
   40.6630   40.1670   26.8790 O   0  0  0  0  0  0  0  0  0  0  0  0
   41.6300   39.3210   29.7890 N   0  0  0  0  0  0  0  0  0  0  0  0
   40.4160   41.1670   27.7610 C   0  0  0  0  0  0  0  0  0  0  0  0
   40.5080   40.0370   30.0500 C   0  0  0  0  0  0  0  0  0  0  0  0
   41.6830   42.0360   29.6440 N   0  0  0  0  0  0  0  0  0  0  0  0
   40.4830   41.3380   29.2980 C   0  0  0  0  0  0  0  0  0  0  0  0
  1  3  1  0
  2  4  1  0
  3  6  1  0
  6  5  1  0
  6  4  1  0
M  END
$$$$

     RDKit          3D

 13 12  0  0  0  0  0  0  0  0999 V2000
   39.7050   42.5560   27.8410 O   0  0  0  0  0  0  0  0  0  0  0  0
   40.1900   38.0870   30.3070 O   0  0  0  0  0  0  0  0  0  0  0  0
   40.2840   40.3300   28.8400 O   0  0  0  0  0  0  0  0  0  0  0  0
   38.4710   40.3920   30.7510 C   0  0  0  0  0  0  0  0  0  0  0  0
   39.3820   44.0070   28.1680 C   0  0  0  0  0  0  0  0  0  0  0  0
   36.5350   42.2610   29.4430 C   0  0  0  0  0  0  0  0  0  0  0  0
   39.5730   43.1580   31.7150 O   0  0  0  0  0  0  0  0  0  0  0  0
   38.5730   41.3220   29.6490 N   0  0  0  0  0  0  0  0  0  0  0  0
   39.3480   41.2060   28.4600 C   0  0  0  0  0  0  0  0  0  0  0  0
   38.9500   38.9390   30.6580 C   0  0  0  0  0  0  0  0  0  0  0  0
   36.4230   41.8750   28.1060 O   0  0  0  0  0  0  0  0  0  0  0  0
   38.0390   42.5210   29.7410 C   0  0  0  0  0  0  0  0  0  0  0  0
   38.2940   43.3470   31.0070 C   0  0  0  0  0  0  0  0  0  0  0  0
  1  5  1  0
  1  9  1  0
  2 10  1  0
  6 12  1  0
  8 12  1  0
  8  4  1  0
  9  3  1  0
  9  8  1  0
 10  4  1  0
 11  6  1  0
 12 13  1  0
 13  7  1  0
M  END
$$$$

     RDKit          3D

 25 28  0  0  0  0  0  0  0  0999 V2000
   39.9960   38.6570   31.3650 C   0  0  0  0  0  0  0  0  0  0  0  0
   41.9560   42.4930   32.9090 C   0  0  0  0  0  0  0  0  0  0  0  0
   38.4540   41.3560   25.5510 C   0  0  0  0  0  0  0  0  0  0  0  0
   38.1050   39.1700   26.6470 C   0  0  0  0  0  0  0  0  0  0  0  0
   40.4820   41.1930   34.5360 C   0  0  0  0  0  0  0  0  0  0  0  0
   40.9330   42.5180   36.5750 S   0  0  0  0  0  0  0  0  0  0  0  0
   41.2690   41.2660   37.1150 O   0  0  0  0  0  0  0  0  0  0  0  0
   40.2390   39.0520   32.7460 C   0  0  0  0  0  0  0  0  0  0  0  0
   38.8440   40.4280   26.5110 C   0  0  0  0  0  0  0  0  0  0  0  0
   40.1420   40.2930   28.7740 C   0  0  0  0  0  0  0  0  0  0  0  0
   42.4430   42.8610   34.2610 C   0  0  0  0  0  0  0  0  0  0  0  0
   41.3620   40.0400   32.6420 C   0  0  0  0  0  0  0  0  0  0  0  0
   43.2720   43.3570   36.9440 C   0  0  0  0  0  0  0  0  0  0  0  0
   37.8240   40.0190   25.4520 N   0  0  0  0  0  0  0  0  0  0  0  0
   41.1980   41.2170   33.1960 N   0  0  0  0  0  0  0  0  0  0  0  0
   39.9460   41.0070   27.4190 C   0  0  0  0  0  0  0  0  0  0  0  0
   40.2210   39.4470   30.2970 N   0  0  0  0  0  0  0  0  0  0  0  0
   41.8910   43.7200   37.1140 N   0  0  0  0  0  0  0  0  0  0  0  0
   40.8180   40.7000   29.8370 N   0  0  0  0  0  0  0  0  0  0  0  0
   39.6600   43.0040   36.8290 O   0  0  0  0  0  0  0  0  0  0  0  0
   37.5580   36.6150   28.9590 O   0  0  0  0  0  0  0  0  0  0  0  0
   41.5800   45.0640   36.4220 C   0  0  0  0  0  0  0  0  0  0  0  0
   41.0780   42.5100   34.9850 C   0  0  0  0  0  0  0  0  0  0  0  0
   38.1930   37.5460   29.7370 C   0  0  0  0  0  0  0  0  0  0  0  0
   39.1830   37.3740   31.0410 C   0  0  0  0  0  0  0  0  0  0  0  0
  1 25  1  0
  1  8  1  0
  2 15  1  0
  2 11  1  0
  3  9  1  0
  5 23  1  0
  6 20  2  0
  6 18  1  0
  6  7  2  0
  9  4  1  0
  9 16  1  0
 10 16  1  0
 10 19  1  0
 10 17  1  0
 11 23  1  0
 12  8  1  0
 12 15  1  0
 13 18  1  0
 14  3  1  0
 14  9  1  0
 14  4  1  0
 15  5  1  0
 17  1  1  0
 19 17  1  0
 21 24  1  0
 22 18  1  0
 23  6  1  0
 24 25  1  0
M  END
$$$$

     RDKit          3D

 17 16  0  0  0  0  0  0  0  0999 V2000
   42.0790   41.0570   28.3870 O   0  0  0  0  0  0  0  0  0  0  0  0
   42.0670   39.0410   30.5700 N   0  0  0  0  0  0  0  0  0  0  0  0
   39.8290   39.6130   29.6390 N   0  0  0  0  0  0  0  0  0  0  0  0
   38.5750   41.1170   28.2300 C   0  0  0  0  0  0  0  0  0  0  0  0
   41.2540   41.2810   30.9100 C   0  0  0  0  0  0  0  0  0  0  0  0
   36.7790   39.4960   25.3450 C   0  0  0  0  0  0  0  0  0  0  0  0
   42.0620   43.3260   32.9880 O   0  0  0  0  0  0  0  0  0  0  0  0
   40.8460   41.2940   28.1170 C   0  0  0  0  0  0  0  0  0  0  0  0
   41.0700   39.8740   30.3870 C   0  0  0  0  0  0  0  0  0  0  0  0
   35.7470   40.2210   25.2470 O   0  0  0  0  0  0  0  0  0  0  0  0
   37.2130   38.7470   24.4350 O   0  0  0  0  0  0  0  0  0  0  0  0
   40.1420   42.5270   33.8170 O   0  0  0  0  0  0  0  0  0  0  0  0
   39.7970   40.2340   28.2640 C   0  0  0  0  0  0  0  0  0  0  0  0
   41.4430   41.0750   32.3750 C   0  0  0  0  0  0  0  0  0  0  0  0
   41.1550   42.4300   33.0340 C   0  0  0  0  0  0  0  0  0  0  0  0
   38.0560   40.9830   26.7630 C   0  0  0  0  0  0  0  0  0  0  0  0
   37.4360   39.4650   26.5800 C   0  0  0  0  0  0  0  0  0  0  0  0
  3  9  1  0
  4 13  1  0
  5 14  1  0
  6 17  1  0
  7 15  2  0
  8  1  2  0
  9  2  2  0
  9  5  1  0
 10  6  1  0
 11  6  2  0
 13  8  1  0
 13  3  1  0
 14 15  1  0
 15 12  1  0
 16  4  1  0
 17 16  1  0
M  END
$$$$

     RDKit          3D

  8  7  0  0  0  0  0  0  0  0999 V2000
   42.0160   43.8970   29.0650 O   0  0  0  0  0  0  0  0  0  0  0  0
   42.5840   43.6330   30.0500 N   0  0  0  0  0  0  0  0  0  0  0  0
   42.1100   41.5790   28.6590 C   0  0  0  0  0  0  0  0  0  0  0  0
   42.6150   40.1880   28.8440 O   0  0  0  0  0  0  0  0  0  0  0  0
   40.1760   42.7710   27.8920 O   0  0  0  0  0  0  0  0  0  0  0  0
   40.7460   41.5820   28.0990 C   0  0  0  0  0  0  0  0  0  0  0  0
   42.5400   42.1260   30.1100 C   0  0  0  0  0  0  0  0  0  0  0  0
   40.3770   40.4660   27.5700 N   0  0  0  0  0  0  0  0  0  0  0  0
  1  2  1  0
  2  7  1  0
  3  4  1  0
  3  7  1  0
  5  6  2  0
  6  3  1  0
  8  6  1  0
M  END
$$$$

     RDKit          3D

 23 25  0  0  0  0  0  0  0  0999 V2000
   38.5440   41.6670   28.3670 O   0  0  0  0  0  0  0  0  0  0  0  0
   41.5790   38.9390   31.6530 O   0  0  0  0  0  0  0  0  0  0  0  0
   39.6370   38.1660   33.3180 O   0  0  0  0  0  0  0  0  0  0  0  0
   39.7410   38.7020   29.6220 N   0  0  0  0  0  0  0  0  0  0  0  0
   41.7970   41.1750   32.4800 C   0  0  0  0  0  0  0  0  0  0  0  0
   42.2720   43.2240   33.6340 C   0  0  0  0  0  0  0  0  0  0  0  0
   38.7290   40.8710   29.5540 C   0  0  0  0  0  0  0  0  0  0  0  0
   39.0200   38.6990   32.2180 C   0  0  0  0  0  0  0  0  0  0  0  0
   37.8620   38.8420   24.2700 O   0  0  0  0  0  0  0  0  0  0  0  0
   41.0180   39.9420   32.4980 C   0  0  0  0  0  0  0  0  0  0  0  0
   43.6950   42.5290   31.8750 C   0  0  0  0  0  0  0  0  0  0  0  0
   42.8610   41.4300   31.6840 C   0  0  0  0  0  0  0  0  0  0  0  0
   38.4220   41.1070   27.1790 C   0  0  0  0  0  0  0  0  0  0  0  0
   39.4590   40.8450   30.5620 C   0  0  0  0  0  0  0  0  0  0  0  0
   38.7060   41.2830   25.4030 C   0  0  0  0  0  0  0  0  0  0  0  0
   37.4890   40.1740   29.2830 C   0  0  0  0  0  0  0  0  0  0  0  0
   41.4750   42.1630   33.3610 C   0  0  0  0  0  0  0  0  0  0  0  0
   43.4340   43.3800   32.9150 C   0  0  0  0  0  0  0  0  0  0  0  0
   39.3320   40.5630   24.1700 C   0  0  0  0  0  0  0  0  0  0  0  0
   38.5880   39.3060   29.0590 C   0  0  0  0  0  0  0  0  0  0  0  0
   37.4280   39.9600   24.8670 C   0  0  0  0  0  0  0  0  0  0  0  0
   39.5530   40.1320   32.0160 C   0  0  0  0  0  0  0  0  0  0  0  0
   37.6090   40.3300   26.1840 C   0  0  0  0  0  0  0  0  0  0  0  0
  1  7  1  0
  5 10  1  0
  5 17  1  0
  7 14  1  0
  8  3  1  0
  9 21  1  0
 10  2  1  0
 11 18  2  0
 12 11  1  0
 12  5  2  0
 13  1  1  0
 15 19  1  0
 15 23  1  0
 15 13  1  0
 16  7  1  0
 17  6  2  0
 18  6  1  0
 20 16  1  0
 20  7  1  0
 20  4  1  0
 22 14  1  0
 22  8  1  0
 22 10  1  0
 23 21  1  0
 23 13  1  0
M  END
$$$$

     RDKit          3D

  7  7  0  0  0  0  0  0  0  0999 V2000
   40.9790   43.2280   30.0090 C   0  0  0  0  0  0  0  0  0  0  0  0
   41.0220   42.5540   28.6350 C   0  0  0  0  0  0  0  0  0  0  0  0
   40.8110   42.6340   31.3960 N   0  0  0  0  0  0  0  0  0  0  0  0
   39.6760   43.1810   31.9460 N   0  0  0  0  0  0  0  0  0  0  0  0
   40.3450   44.4000   30.3100 C   0  0  0  0  0  0  0  0  0  0  0  0
   39.1870   44.1300   31.0830 N   0  0  0  0  0  0  0  0  0  0  0  0
   41.9940   41.4250   28.6020 N   0  0  0  0  0  0  0  0  0  0  0  0
  1  2  1  0
  1  5  1  0
  1  3  1  0
  3  4  1  0
  5  6  1  0
  6  4  1  0
  7  2  1  0
M  END
$$$$

     RDKit          3D

 10 11  0  0  0  0  0  0  0  0999 V2000
   40.1560   40.3610   28.7310 C   0  0  0  0  0  0  0  0  0  0  0  0
   40.6210   42.8340   29.4580 O   0  0  0  0  0  0  0  0  0  0  0  0
   41.5400   42.2730   25.9650 O   0  0  0  0  0  0  0  0  0  0  0  0
   40.0830   42.1880   25.8860 O   0  0  0  0  0  0  0  0  0  0  0  0
   40.7270   41.7890   26.7040 C   0  0  0  0  0  0  0  0  0  0  0  0
   39.9920   41.6040   29.7350 C   0  0  0  0  0  0  0  0  0  0  0  0
   38.9960   41.6200   30.8600 C   0  0  0  0  0  0  0  0  0  0  0  0
   38.2720   42.7420   30.9270 O   0  0  0  0  0  0  0  0  0  0  0  0
   40.6210   39.2190   29.5540 O   0  0  0  0  0  0  0  0  0  0  0  0
   40.9740   41.3750   28.1140 N   0  0  0  0  0  0  0  0  0  0  0  0
  1  9  1  0
  1  6  1  0
  3  5  1  0
  4  3  1  0
  4  5  1  0
  6  2  1  0
  6  7  1  0
  7  8  1  0
 10  5  1  0
 10  1  1  0
 10  6  1  0
M  END
$$$$

     RDKit          3D

  3  3  0  0  0  0  0  0  0  0999 V2000
   43.1320   40.2660   29.7460 C   0  0  0  0  0  0  0  0  0  0  0  0
   42.1520   41.0060   29.0870 C   0  0  0  0  0  0  0  0  0  0  0  0
   43.0880   41.9770   29.1480 O   0  0  0  0  0  0  0  0  0  0  0  0
  2  3  1  0
  2  1  1  0
  3  1  1  0
M  END
$$$$

     RDKit          3D

  5  4  0  0  0  0  0  0  0  0999 V2000
   41.7480   41.9690   28.4250 O   0  0  0  0  0  0  0  0  0  0  0  0
   41.4420   41.5070   29.7760 C   0  0  0  0  0  0  0  0  0  0  0  0
   41.6220   39.6470   31.2890 O   0  0  0  0  0  0  0  0  0  0  0  0
   42.1940   42.1480   30.9370 O   0  0  0  0  0  0  0  0  0  0  0  0
   41.6170   40.0060   29.8700 C   0  0  0  0  0  0  0  0  0  0  0  0
  1  2  1  0
  2  5  1  0
  2  4  1  0
  5  3  1  0
M  END
$$$$

     RDKit          3D

 23 25  0  0  0  0  0  0  0  0999 V2000
   39.3820   38.8860   31.2760 C   0  0  0  0  0  0  0  0  0  0  0  0
   45.5020   40.9800   30.5550 C   0  0  0  0  0  0  0  0  0  0  0  0
   42.5070   41.3440   30.7870 N   0  0  0  0  0  0  0  0  0  0  0  0
   38.2300   40.5170   23.7960 C   0  0  0  0  0  0  0  0  0  0  0  0
   43.1770   42.6110   31.2260 C   0  0  0  0  0  0  0  0  0  0  0  0
   39.3970   40.0150   30.2550 C   0  0  0  0  0  0  0  0  0  0  0  0
   38.4930   40.3940   25.1550 C   0  0  0  0  0  0  0  0  0  0  0  0
   39.9630   40.7780   25.5590 C   0  0  0  0  0  0  0  0  0  0  0  0
   38.3550   40.9220   30.0730 N   0  0  0  0  0  0  0  0  0  0  0  0
   44.6090   39.7680   30.7140 C   0  0  0  0  0  0  0  0  0  0  0  0
   40.3520   42.7490   30.6260 C   0  0  0  0  0  0  0  0  0  0  0  0
   46.8680   40.9100   30.3370 N   0  0  0  0  0  0  0  0  0  0  0  0
   44.9380   42.6510   31.1060 S   0  0  0  0  0  0  0  0  0  0  0  0
   41.1710   41.5020   30.2720 C   0  0  0  0  0  0  0  0  0  0  0  0
   36.9250   40.3450   23.3670 C   0  0  0  0  0  0  0  0  0  0  0  0
   37.6400   40.8410   28.7540 C   0  0  0  0  0  0  0  0  0  0  0  0
   43.0960   39.9810   30.6560 C   0  0  0  0  0  0  0  0  0  0  0  0
   36.1800   40.0140   25.6310 C   0  0  0  0  0  0  0  0  0  0  0  0
   38.8400   42.2810   30.4870 C   0  0  0  0  0  0  0  0  0  0  0  0
   35.9180   40.1390   24.3170 C   0  0  0  0  0  0  0  0  0  0  0  0
   40.5090   40.3680   29.5120 C   0  0  0  0  0  0  0  0  0  0  0  0
   38.0820   40.2200   27.5340 C   0  0  0  0  0  0  0  0  0  0  0  0
   37.5570   40.2210   26.1200 C   0  0  0  0  0  0  0  0  0  0  0  0
  2 12  1  0
  2 10  1  0
  2 13  1  0
  3 17  1  0
  3  5  1  0
  4  7  1  0
  6  1  1  0
  7  8  1  0
  7 23  2  0
  9  6  1  0
  9 19  1  0
 13  5  1  0
 14 21  1  0
 14 11  1  0
 14  3  1  0
 15  4  2  0
 15 20  1  0
 16  9  1  0
 17 10  1  0
 18 23  1  0
 19 11  1  0
 20 18  2  0
 21  6  1  0
 22 16  2  3
 23 22  1  0
M  END
$$$$

     RDKit          3D

  7  6  0  0  0  0  0  0  0  0999 V2000
   38.1000   42.0860   29.2140 O   0  0  0  0  0  0  0  0  0  0  0  0
   42.2820   41.9870   30.5880 C   0  0  0  0  0  0  0  0  0  0  0  0
   41.9940   41.5070   27.9740 O   0  0  0  0  0  0  0  0  0  0  0  0
   39.7660   40.3490   28.1740 N   0  0  0  0  0  0  0  0  0  0  0  0
   41.6040   41.4560   29.2960 C   0  0  0  0  0  0  0  0  0  0  0  0
   39.2400   41.8490   30.0520 C   0  0  0  0  0  0  0  0  0  0  0  0
   40.2460   40.8510   29.4430 C   0  0  0  0  0  0  0  0  0  0  0  0
  1  6  1  0
  3  5  1  0
  5  7  1  0
  5  2  1  0
  7  4  1  0
  7  6  1  0
M  END
$$$$

     RDKit          3D

 10 10  0  0  0  0  0  0  0  0999 V2000
   38.2900   43.8390   30.4160 O   0  0  0  0  0  0  0  0  0  0  0  0
   41.0810   40.6060   27.5890 S   0  0  0  0  0  0  0  0  0  0  0  0
   40.5250   42.3580   27.7880 C   0  0  0  0  0  0  0  0  0  0  0  0
   38.2390   40.6930   29.6080 O   0  0  0  0  0  0  0  0  0  0  0  0
   39.5450   41.1430   29.8410 C   0  0  0  0  0  0  0  0  0  0  0  0
   41.8150   40.4140   30.2070 O   0  0  0  0  0  0  0  0  0  0  0  0
   38.7760   43.5320   29.3280 C   0  0  0  0  0  0  0  0  0  0  0  0
   39.7320   42.4770   29.0980 C   0  0  0  0  0  0  0  0  0  0  0  0
   38.2350   44.1250   28.3150 O   0  0  0  0  0  0  0  0  0  0  0  0
   40.6730   40.1930   29.3580 C   0  0  0  0  0  0  0  0  0  0  0  0
  2  3  1  0
  2 10  1  0
  3  8  1  0
  5  4  1  0
  7  1  1  0
  8  7  1  0
  8  5  1  0
  9  7  2  0
 10  5  1  0
 10  6  1  0
M  END
$$$$

     RDKit          3D

 11 11  0  0  0  0  0  0  0  0999 V2000
   38.0270   41.8360   28.2180 C   0  0  0  0  0  0  0  0  0  0  0  0
   41.9020   40.0270   29.0330 C   0  0  0  0  0  0  0  0  0  0  0  0
   39.0580   42.3150   29.2240 C   0  0  0  0  0  0  0  0  0  0  0  0
   39.2540   43.7220   31.2240 O   0  0  0  0  0  0  0  0  0  0  0  0
   37.7060   42.1060   30.8760 O   0  0  0  0  0  0  0  0  0  0  0  0
   40.2200   41.3460   29.3910 C   0  0  0  0  0  0  0  0  0  0  0  0
   40.3680   43.7730   32.0710 C   0  0  0  0  0  0  0  0  0  0  0  0
   38.6700   42.8590   30.4330 C   0  0  0  0  0  0  0  0  0  0  0  0
   42.1540   40.7170   30.1740 C   0  0  0  0  0  0  0  0  0  0  0  0
   41.0010   41.4270   30.4550 N   0  0  0  0  0  0  0  0  0  0  0  0
   40.6440   40.3660   28.5490 N   0  0  0  0  0  0  0  0  0  0  0  0
  2  9  1  0
  3  1  1  0
  3  6  1  0
  3  8  1  0
  4  7  1  0
  6 10  2  0
  8  5  2  0
  8  4  1  0
  9 10  1  0
 11  2  1  0
 11  6  1  0
M  END
$$$$

     RDKit          3D

 11 11  0  0  0  0  0  0  0  0999 V2000
   40.8540   39.3010   30.7830 O   0  0  0  0  0  0  0  0  0  0  0  0
   39.1240   40.8610   30.8210 O   0  0  0  0  0  0  0  0  0  0  0  0
   39.5110   41.5410   25.6140 O   0  0  0  0  0  0  0  0  0  0  0  0
   40.3620   41.0460   26.6420 C   0  0  0  0  0  0  0  0  0  0  0  0
   38.4070   41.8530   30.0100 C   0  0  0  0  0  0  0  0  0  0  0  0
   37.9080   42.9580   30.8410 O   0  0  0  0  0  0  0  0  0  0  0  0
   39.7280   41.2150   28.0760 C   0  0  0  0  0  0  0  0  0  0  0  0
   40.6940   40.7150   28.9840 O   0  0  0  0  0  0  0  0  0  0  0  0
   39.3100   42.4910   28.9300 C   0  0  0  0  0  0  0  0  0  0  0  0
   38.4750   43.2560   28.0580 O   0  0  0  0  0  0  0  0  0  0  0  0
   39.9220   40.0010   29.9730 C   0  0  0  0  0  0  0  0  0  0  0  0
  3  4  1  0
  5  2  1  0
  5  6  1  0
  7  4  1  0
  7  9  1  0
  7  8  1  0
  8 11  1  0
  9 10  1  0
  9  5  1  0
 11  1  1  0
 11  2  1  0
M  END
$$$$

     RDKit          3D

  7  7  0  0  0  0  0  0  0  0999 V2000
   41.0980   43.2740   30.6740 C   0  0  0  0  0  0  0  0  0  0  0  0
   41.0540   41.5560   27.5510 C   0  0  0  0  0  0  0  0  0  0  0  0
   41.3430   42.6270   29.4310 C   0  0  0  0  0  0  0  0  0  0  0  0
   40.6260   41.3240   26.3740 O   0  0  0  0  0  0  0  0  0  0  0  0
   42.5190   42.0070   29.0320 C   0  0  0  0  0  0  0  0  0  0  0  0
   42.3100   41.3610   27.8770 N   0  0  0  0  0  0  0  0  0  0  0  0
   40.3850   42.3210   28.4270 N   0  0  0  0  0  0  0  0  0  0  0  0
  2  6  1  0
  2  7  1  0
  3  1  1  0
  4  2  2  0
  5  3  1  0
  6  5  2  0
  7  3  2  0
M  END
$$$$
