
     RDKit          3D

 30 30  0  0  0  0  0  0  0  0999 V2000
   27.3360   37.4270   29.5810 C   0  0  0  0  0  0  0  0  0  0  0  0
   30.4680   35.7130   29.5770 S   0  0  0  0  0  0  0  0  0  0  0  0
   38.9760   37.7660   28.2510 C   0  0  0  0  0  0  0  0  0  0  0  0
   31.2560   36.8770   29.8440 C   0  0  0  0  0  0  0  0  0  0  0  0
   34.8640   37.6650   28.8340 C   0  0  0  0  0  0  0  0  0  0  0  0
   29.5430   38.7320   31.8870 C   0  0  0  0  0  0  0  0  0  0  0  0
   32.6020   36.8160   29.4850 C   0  0  0  0  0  0  0  0  0  0  0  0
   29.3630   38.2880   30.6330 C   0  0  0  0  0  0  0  0  0  0  0  0
   41.8150   37.7070   32.7740 O   0  0  0  0  0  0  0  0  0  0  0  0
   40.3770   39.2920   27.8330 C   0  0  0  0  0  0  0  0  0  0  0  0
   33.5840   37.3710   29.4620 N   0  0  0  0  0  0  0  0  0  0  0  0
   29.7700   35.5680   28.0570 C   0  0  0  0  0  0  0  0  0  0  0  0
   41.5430   36.0390   29.7610 O   0  0  0  0  0  0  0  0  0  0  0  0
   36.5830   38.5110   28.1350 C   0  0  0  0  0  0  0  0  0  0  0  0
   42.0270   35.3810   32.4210 C   0  0  0  0  0  0  0  0  0  0  0  0
   30.3620   39.1950   31.4710 C   0  0  0  0  0  0  0  0  0  0  0  0
   39.9880   40.5630   28.5590 C   0  0  0  0  0  0  0  0  0  0  0  0
   34.5140   38.0840   27.4640 C   0  0  0  0  0  0  0  0  0  0  0  0
   35.8780   38.4240   27.0490 N   0  0  0  0  0  0  0  0  0  0  0  0
   30.2930   35.1430   26.9140 C   0  0  0  0  0  0  0  0  0  0  0  0
   37.9080   38.6250   28.0640 C   0  0  0  0  0  0  0  0  0  0  0  0
   41.7360   36.7770   31.9240 C   0  0  0  0  0  0  0  0  0  0  0  0
   40.4560   38.6950   26.5620 O   0  0  0  0  0  0  0  0  0  0  0  0
   40.2340   38.1450   28.7460 C   0  0  0  0  0  0  0  0  0  0  0  0
   40.8720   38.2730   30.1230 C   0  0  0  0  0  0  0  0  0  0  0  0
   30.0410   37.2040   30.1790 C   0  0  0  0  0  0  0  0  0  0  0  0
   40.8200   34.6430   32.9650 C   0  0  0  0  0  0  0  0  0  0  0  0
   32.8510   35.7230   28.8730 O   0  0  0  0  0  0  0  0  0  0  0  0
   41.5490   36.9780   30.5710 C   0  0  0  0  0  0  0  0  0  0  0  0
   28.1150   38.5590   30.0700 O   0  0  0  0  0  0  0  0  0  0  0  0
  1 30  1  0
  2 12  1  0
  2  4  1  0
  2 26  1  0
  4 26  2  0
  5 11  1  0
  7  4  1  0
  8  6  1  0
 10 17  1  0
 10 24  1  0
 11  7  1  0
 13 29  2  0
 15 27  1  0
 16  6  1  0
 18  5  1  0
 19 18  1  0
 19 14  1  0
 20 12  2  0
 21 14  1  0
 21  3  1  0
 22 15  1  0
 22  9  2  0
 23 10  1  0
 24  3  1  0
 24 25  1  0
 25 29  1  0
 26  8  1  0
 28  7  2  0
 29 22  1  0
 30  8  1  0
M  END
$$$$

     RDKit          3D

 21 22  0  0  0  0  0  0  0  0999 V2000
   43.1350   37.7100   30.3340 C   0  0  0  0  0  0  0  0  0  0  0  0
   41.7730   36.3220   33.6400 N   0  0  0  0  0  0  0  0  0  0  0  0
   40.7870   39.2620   27.7870 C   0  0  0  0  0  0  0  0  0  0  0  0
   42.6350   40.7490   28.2250 C   0  0  0  0  0  0  0  0  0  0  0  0
   46.0870   37.0070   30.8850 P   0  0  0  0  0  0  0  0  0  0  0  0
   41.1290   41.2430   26.5250 O   0  0  0  0  0  0  0  0  0  0  0  0
   44.6390   39.1340   32.1730 O   0  0  0  0  0  0  0  0  0  0  0  0
   41.4480   36.4730   31.3050 C   0  0  0  0  0  0  0  0  0  0  0  0
   46.3720   38.1790   30.0270 O   0  0  0  0  0  0  0  0  0  0  0  0
   44.4510   37.7580   31.5500 P   0  0  0  0  0  0  0  0  0  0  0  0
   41.8790   34.8920   33.8860 C   0  0  0  0  0  0  0  0  0  0  0  0
   42.2410   36.9970   32.5050 C   0  0  0  0  0  0  0  0  0  0  0  0
   41.2670   38.4500   28.7860 C   0  0  0  0  0  0  0  0  0  0  0  0
   46.9130   36.8530   32.1470 O   0  0  0  0  0  0  0  0  0  0  0  0
   42.4170   36.4450   30.2240 N   0  0  0  0  0  0  0  0  0  0  0  0
   45.6580   35.7630   30.2010 O   0  0  0  0  0  0  0  0  0  0  0  0
   41.4960   40.4000   27.4780 C   0  0  0  0  0  0  0  0  0  0  0  0
   43.0680   34.2930   33.2690 N   0  0  0  0  0  0  0  0  0  0  0  0
   43.0950   39.9410   29.2540 C   0  0  0  0  0  0  0  0  0  0  0  0
   43.7130   36.6980   32.6320 C   0  0  0  0  0  0  0  0  0  0  0  0
   42.4500   38.7430   29.4670 C   0  0  0  0  0  0  0  0  0  0  0  0
  1 21  1  0
  1 10  1  0
  2 11  1  0
  3 13  1  0
  4 19  2  0
  5 10  1  0
  5 14  1  0
  6 17  1  0
  8 12  1  0
  9  5  2  0
 10  7  2  0
 10 20  1  0
 12 20  1  0
 12  2  1  0
 13 21  2  0
 15  1  1  0
 15  8  1  0
 16  5  1  0
 17  3  2  0
 17  4  1  0
 18 11  1  0
 19 21  1  0
M  END
$$$$

     RDKit          3D

 11 10  0  0  0  0  0  0  0  0999 V2000
   42.0740   37.1430   29.0500 C   0  0  0  0  0  0  0  0  0  0  0  0
   41.1900   35.9830   32.1300 O   0  0  0  0  0  0  0  0  0  0  0  0
   41.9280   35.9780   28.3190 O   0  0  0  0  0  0  0  0  0  0  0  0
   41.3680   37.5920   30.2850 C   0  0  0  0  0  0  0  0  0  0  0  0
   43.3360   37.5130   32.0140 C   0  0  0  0  0  0  0  0  0  0  0  0
   43.9010   36.9120   33.2910 C   0  0  0  0  0  0  0  0  0  0  0  0
   43.3650   37.2200   29.2310 N   0  0  0  0  0  0  0  0  0  0  0  0
   43.9770   38.4650   31.2230 O   0  0  0  0  0  0  0  0  0  0  0  0
   41.8940   37.0830   31.6680 C   0  0  0  0  0  0  0  0  0  0  0  0
   43.0330   35.9460   33.9210 O   0  0  0  0  0  0  0  0  0  0  0  0
   41.5950   38.1690   28.1460 O   0  0  0  0  0  0  0  0  0  0  0  0
  1  7  1  0
  1  4  1  0
  3  1  1  0
  4  9  1  0
  5  8  1  0
  5  6  1  0
  6 10  1  0
  9  5  1  0
  9  2  1  0
 11  1  1  0
M  END
$$$$

     RDKit          3D

 15 17  0  0  0  0  0  0  0  0999 V2000
   42.6800   37.0900   30.3560 N   0  0  0  0  0  0  0  0  0  0  0  0
   42.3080   36.6490   32.6650 C   0  0  0  0  0  0  0  0  0  0  0  0
   41.3790   37.5150   30.1680 N   0  0  0  0  0  0  0  0  0  0  0  0
   45.9700   38.5560   33.3220 O   0  0  0  0  0  0  0  0  0  0  0  0
   42.4250   35.0140   32.9220 C   0  0  0  0  0  0  0  0  0  0  0  0
   41.2060   35.1130   33.7880 N   0  0  0  0  0  0  0  0  0  0  0  0
   43.3330   37.2150   29.2320 C   0  0  0  0  0  0  0  0  0  0  0  0
   42.0810   38.0420   33.1380 N   0  0  0  0  0  0  0  0  0  0  0  0
   43.2650   38.8450   32.5710 C   0  0  0  0  0  0  0  0  0  0  0  0
   44.5490   37.2730   29.3890 N   0  0  0  0  0  0  0  0  0  0  0  0
   44.5730   38.3020   33.1560 C   0  0  0  0  0  0  0  0  0  0  0  0
   44.2370   38.1270   31.6630 C   0  0  0  0  0  0  0  0  0  0  0  0
   42.4450   37.4930   28.1260 N   0  0  0  0  0  0  0  0  0  0  0  0
   43.3930   36.8010   31.4670 C   0  0  0  0  0  0  0  0  0  0  0  0
   41.1840   37.6990   28.7940 C   0  0  0  0  0  0  0  0  0  0  0  0
  1 14  1  0
  2  5  1  0
  2  8  1  0
  3  1  1  0
  5  6  1  0
  7 10  1  0
  7  1  1  0
  9  8  1  0
  9 11  1  0
 11  4  1  0
 12  9  1  0
 12 11  1  0
 13 15  1  0
 13  7  2  0
 14 12  1  0
 14  2  1  0
 15  3  2  0
M  END
$$$$

     RDKit          3D

 15 15  0  0  0  0  0  0  0  0999 V2000
   40.9890   36.9260   28.4950 C   0  0  0  0  0  0  0  0  0  0  0  0
   41.7980   35.7250   28.5400 O   0  0  0  0  0  0  0  0  0  0  0  0
   42.4680   37.7050   30.3780 O   0  0  0  0  0  0  0  0  0  0  0  0
   45.9000   36.6570   31.6260 C   0  0  0  0  0  0  0  0  0  0  0  0
   43.1630   38.2100   28.2410 C   0  0  0  0  0  0  0  0  0  0  0  0
   43.1210   38.0730   33.0190 C   0  0  0  0  0  0  0  0  0  0  0  0
   43.4150   38.8160   27.2230 O   0  0  0  0  0  0  0  0  0  0  0  0
   41.8650   38.0420   29.0410 C   0  0  0  0  0  0  0  0  0  0  0  0
   43.5870   35.8530   32.1710 N   0  0  0  0  0  0  0  0  0  0  0  0
   45.3550   37.5290   28.6620 O   0  0  0  0  0  0  0  0  0  0  0  0
   41.1060   39.3300   29.2180 C   0  0  0  0  0  0  0  0  0  0  0  0
   44.1950   37.6210   29.0170 C   0  0  0  0  0  0  0  0  0  0  0  0
   43.1680   36.6110   33.3840 C   0  0  0  0  0  0  0  0  0  0  0  0
   44.4090   36.5980   31.3350 C   0  0  0  0  0  0  0  0  0  0  0  0
   43.8120   37.2600   30.2850 N   0  0  0  0  0  0  0  0  0  0  0  0
  1  2  1  0
  1  8  1  0
  5 12  1  0
  5  8  1  0
  6 13  1  0
  7  5  2  0
  8 11  1  0
  8  3  1  0
  9 13  1  0
 10 12  2  0
 12 15  1  0
 14  4  1  0
 14  9  1  0
 15  3  1  0
 15 14  1  0
M  END
$$$$

     RDKit          3D

  6  5  0  0  0  0  0  0  0  0999 V2000
   42.2210   35.5090   32.4190 N   0  0  0  0  0  0  0  0  0  0  0  0
   41.2830   38.1510   28.9160 O   0  0  0  0  0  0  0  0  0  0  0  0
   41.9640   37.2710   29.4290 C   0  0  0  0  0  0  0  0  0  0  0  0
   42.3460   37.5020   30.8190 C   0  0  0  0  0  0  0  0  0  0  0  0
   41.4930   36.6280   31.7180 C   0  0  0  0  0  0  0  0  0  0  0  0
   42.3470   36.3000   28.6450 O   0  0  0  0  0  0  0  0  0  0  0  0
  2  3  1  0
  3  4  1  0
  4  5  1  0
  5  1  1  0
  6  3  2  0
M  END
$$$$

     RDKit          3D

 10 10  0  0  0  0  0  0  0  0999 V2000
   43.6930   37.5320   27.3040 Cl  0  0  0  0  0  0  0  0  0  0  0  0
   42.9510   36.3840   32.5790 F   0  0  0  0  0  0  0  0  0  0  0  0
   43.0290   37.4700   28.8570 C   0  0  0  0  0  0  0  0  0  0  0  0
   42.6680   36.9980   31.5040 C   0  0  0  0  0  0  0  0  0  0  0  0
   41.9190   36.2580   30.6450 C   0  0  0  0  0  0  0  0  0  0  0  0
   43.8590   39.6670   29.2800 C   0  0  0  0  0  0  0  0  0  0  0  0
   40.4480   35.0870   31.6760 I   0  0  0  0  0  0  0  0  0  0  0  0
   43.2690   38.1980   31.0610 C   0  0  0  0  0  0  0  0  0  0  0  0
   42.2010   36.4090   29.2860 C   0  0  0  0  0  0  0  0  0  0  0  0
   43.3700   38.4670   29.6980 C   0  0  0  0  0  0  0  0  0  0  0  0
  1  3  1  0
  3  9  2  0
  3 10  1  0
  4  2  1  0
  5  4  2  0
  5  7  1  0
  6 10  1  0
  8  4  1  0
  9  5  1  0
 10  8  2  0
M  END
$$$$

     RDKit          3D

 10 10  0  0  0  0  0  0  0  0999 V2000
   42.4510   36.3210   32.1020 C   0  0  0  0  0  0  0  0  0  0  0  0
   44.3510   37.7220   31.4500 C   0  0  0  0  0  0  0  0  0  0  0  0
   45.7570   38.1280   31.5300 C   0  0  0  0  0  0  0  0  0  0  0  0
   41.6170   36.9610   31.1640 C   0  0  0  0  0  0  0  0  0  0  0  0
   43.7940   36.7130   32.1100 C   0  0  0  0  0  0  0  0  0  0  0  0
   41.2270   38.6040   29.3540 C   0  0  0  0  0  0  0  0  0  0  0  0
   43.4850   38.4920   30.4980 O   0  0  0  0  0  0  0  0  0  0  0  0
   44.6970   35.9760   32.9350 O   0  0  0  0  0  0  0  0  0  0  0  0
   42.0960   37.9510   30.4130 C   0  0  0  0  0  0  0  0  0  0  0  0
   41.9280   35.2050   33.0330 C   0  0  0  0  0  0  0  0  0  0  0  0
  1  5  2  0
  1 10  1  0
  2  3  1  0
  2  5  1  0
  4  1  1  0
  5  8  1  0
  6  9  1  0
  7  2  1  0
  9  7  1  0
  9  4  2  0
M  END
$$$$

     RDKit          3D

 18 19  0  0  0  0  0  0  0  0999 V2000
   41.5200   37.2270   30.2010 C   0  0  0  0  0  0  0  0  0  0  0  0
   40.8000   37.3420   25.0880 C   0  0  0  0  0  0  0  0  0  0  0  0
   40.6780   39.2330   27.0990 O   0  0  0  0  0  0  0  0  0  0  0  0
   44.9870   40.3140   28.8220 C   0  0  0  0  0  0  0  0  0  0  0  0
   41.8270   36.0510   29.7100 N   0  0  0  0  0  0  0  0  0  0  0  0
   42.4510   40.6420   29.1110 C   0  0  0  0  0  0  0  0  0  0  0  0
   44.6010   39.3950   27.5650 C   0  0  0  0  0  0  0  0  0  0  0  0
   41.0900   34.8730   33.3720 C   0  0  0  0  0  0  0  0  0  0  0  0
   42.2250   36.6850   32.3990 N   0  0  0  0  0  0  0  0  0  0  0  0
   41.7030   35.2890   32.0250 C   0  0  0  0  0  0  0  0  0  0  0  0
   41.8590   39.2520   26.1110 C   0  0  0  0  0  0  0  0  0  0  0  0
   43.1340   39.7100   27.0280 C   0  0  0  0  0  0  0  0  0  0  0  0
   42.0470   37.7540   25.7530 C   0  0  0  0  0  0  0  0  0  0  0  0
   41.1830   38.8790   28.2470 C   0  0  0  0  0  0  0  0  0  0  0  0
   42.4120   39.4450   28.4030 C   0  0  0  0  0  0  0  0  0  0  0  0
   42.0960   37.4750   31.3570 C   0  0  0  0  0  0  0  0  0  0  0  0
   43.8260   41.2310   29.0640 C   0  0  0  0  0  0  0  0  0  0  0  0
   40.8790   37.8560   29.3280 N   0  0  0  0  0  0  0  0  0  0  0  0
  1 16  1  0
  2 13  1  0
  3 14  1  0
  4 17  1  0
  5  1  2  0
  7  4  1  0
 10  9  1  0
 10  8  1  0
 11 13  1  0
 11 12  1  0
 11  3  1  0
 12  7  1  0
 12 15  1  0
 14 15  1  0
 14 18  1  0
 15  6  1  0
 16  9  1  0
 17  6  1  0
 18  1  1  0
M  END
$$$$

     RDKit          3D

 30 31  0  0  0  0  0  0  0  0999 V2000
   42.3880   38.8570   26.5140 C   0  0  0  0  0  0  0  0  0  0  0  0
   44.4370   36.2680   31.4360 C   0  0  0  0  0  0  0  0  0  0  0  0
   46.6920   36.3670   32.4580 O   0  0  0  0  0  0  0  0  0  0  0  0
   46.3750   36.5350   34.0100 S   0  0  0  0  0  0  0  0  0  0  0  0
   41.5580   36.6610   27.7960 C   0  0  0  0  0  0  0  0  0  0  0  0
   47.2270   35.4090   35.0690 C   0  0  0  0  0  0  0  0  0  0  0  0
   37.6980   40.2050   23.3940 N   0  0  0  0  0  0  0  0  0  0  0  0
   39.4390   40.5400   27.2490 C   0  0  0  0  0  0  0  0  0  0  0  0
   38.6580   38.6880   24.7700 C   0  0  0  0  0  0  0  0  0  0  0  0
   39.5580   38.3320   25.8910 C   0  0  0  0  0  0  0  0  0  0  0  0
   47.0510   37.5570   34.5540 O   0  0  0  0  0  0  0  0  0  0  0  0
   42.6530   37.4820   32.8660 C   0  0  0  0  0  0  0  0  0  0  0  0
   41.1340   35.0760   31.7880 O   0  0  0  0  0  0  0  0  0  0  0  0
   42.6350   37.9050   34.3240 O   0  0  0  0  0  0  0  0  0  0  0  0
   38.3810   41.0290   26.8690 C   0  0  0  0  0  0  0  0  0  0  0  0
   43.0340   34.9880   33.1740 N   0  0  0  0  0  0  0  0  0  0  0  0
   37.9510   40.7890   25.6130 C   0  0  0  0  0  0  0  0  0  0  0  0
   45.9710   36.3650   31.1130 C   0  0  0  0  0  0  0  0  0  0  0  0
   41.4110   38.3600   27.6600 C   0  0  0  0  0  0  0  0  0  0  0  0
   41.5730   34.8150   32.8610 C   0  0  0  0  0  0  0  0  0  0  0  0
   38.1080   39.9050   24.6880 C   0  0  0  0  0  0  0  0  0  0  0  0
   43.8840   36.4750   32.9090 C   0  0  0  0  0  0  0  0  0  0  0  0
   42.0050   38.0370   31.4710 C   0  0  0  0  0  0  0  0  0  0  0  0
   41.5500   37.8530   30.1450 N   0  0  0  0  0  0  0  0  0  0  0  0
   40.6540   33.8040   33.6890 C   0  0  0  0  0  0  0  0  0  0  0  0
   44.8020   36.4740   34.2190 C   0  0  0  0  0  0  0  0  0  0  0  0
   41.7480   40.1800   29.0990 C   0  0  0  0  0  0  0  0  0  0  0  0
   39.9480   39.1790   26.8460 C   0  0  0  0  0  0  0  0  0  0  0  0
   41.7450   38.7390   29.1590 C   0  0  0  0  0  0  0  0  0  0  0  0
   42.4930   36.0430   28.7230 O   0  0  0  0  0  0  0  0  0  0  0  0
  2 22  1  0
  3  4  1  0
  4 26  1  0
  4 11  1  0
  4  6  1  0
  5 30  1  0
  7 21  1  0
  9 10  2  0
 10 28  1  0
 12 22  1  0
 12 14  1  0
 13 20  2  0
 15  8  1  0
 17 15  1  0
 18  2  2  0
 18  3  1  0
 19  1  1  0
 19  5  1  0
 19 29  1  0
 20 16  1  0
 20 25  1  0
 21  9  1  0
 21 17  2  0
 22 16  1  0
 22 26  1  0
 23 12  1  0
 24 23  1  0
 28  8  2  0
 28 19  1  0
 29 27  1  0
 29 24  1  0
M  END
$$$$

     RDKit          3D

 13 14  0  0  0  0  0  0  0  0999 V2000
   42.7280   38.8060   29.8090 C   0  0  0  0  0  0  0  0  0  0  0  0
   41.4740   34.8940   33.0960 N   0  0  0  0  0  0  0  0  0  0  0  0
   42.3070   36.6020   28.5700 O   0  0  0  0  0  0  0  0  0  0  0  0
   42.1950   37.7420   30.8620 N   0  0  0  0  0  0  0  0  0  0  0  0
   42.7310   38.2230   28.4540 C   0  0  0  0  0  0  0  0  0  0  0  0
   41.5230   35.3580   30.6300 N   0  0  0  0  0  0  0  0  0  0  0  0
   44.0250   40.7880   28.9060 O   0  0  0  0  0  0  0  0  0  0  0  0
   44.1850   37.9420   28.0690 C   0  0  0  0  0  0  0  0  0  0  0  0
   41.5400   37.2480   32.3080 N   0  0  0  0  0  0  0  0  0  0  0  0
   41.9850   36.7660   29.8540 C   0  0  0  0  0  0  0  0  0  0  0  0
   45.1100   38.2870   29.1140 O   0  0  0  0  0  0  0  0  0  0  0  0
   42.7740   40.3570   29.4240 C   0  0  0  0  0  0  0  0  0  0  0  0
   41.4430   35.8880   31.9770 C   0  0  0  0  0  0  0  0  0  0  0  0
  1 12  1  0
  1  4  1  0
  3 10  1  0
  4  9  1  0
  5  8  1  0
  5  3  1  0
  5  1  1  0
  6 13  1  0
  7 12  1  0
  8 11  1  0
 10  6  2  0
 10  4  1  0
 13  9  1  0
 13  2  1  0
M  END
$$$$

     RDKit          3D

 19 20  0  0  0  0  0  0  0  0999 V2000
   42.7850   40.4130   28.4220 O   0  0  0  0  0  0  0  0  0  0  0  0
   44.1790   36.3310   30.9260 C   0  0  0  0  0  0  0  0  0  0  0  0
   44.3780   35.8530   32.2940 C   0  0  0  0  0  0  0  0  0  0  0  0
   43.7220   38.1160   28.7240 C   0  0  0  0  0  0  0  0  0  0  0  0
   40.7210   35.3550   32.1230 C   0  0  0  0  0  0  0  0  0  0  0  0
   42.6170   36.9110   29.0590 C   0  0  0  0  0  0  0  0  0  0  0  0
   39.8170   40.5690   27.1270 Br  0  0  0  0  0  0  0  0  0  0  0  0
   42.9900   35.1360   34.2420 C   0  0  0  0  0  0  0  0  0  0  0  0
   42.7880   36.1860   30.7390 N   0  0  0  0  0  0  0  0  0  0  0  0
   41.2270   38.0510   31.3760 O   0  0  0  0  0  0  0  0  0  0  0  0
   42.1030   35.7670   31.8950 C   0  0  0  0  0  0  0  0  0  0  0  0
   40.7240   38.7700   27.4720 S   0  0  0  0  0  0  0  0  0  0  0  0
   45.4960   35.7400   32.8390 O   0  0  0  0  0  0  0  0  0  0  0  0
   41.1910   38.9230   29.2230 C   0  0  0  0  0  0  0  0  0  0  0  0
   42.2450   35.9020   28.1720 O   0  0  0  0  0  0  0  0  0  0  0  0
   42.7910   39.2360   29.2110 C   0  0  0  0  0  0  0  0  0  0  0  0
   43.1280   35.4700   32.8170 N   0  0  0  0  0  0  0  0  0  0  0  0
   45.1880   36.6960   30.1160 O   0  0  0  0  0  0  0  0  0  0  0  0
   41.4460   37.5120   29.9600 C   0  0  0  0  0  0  0  0  0  0  0  0
  2  3  1  0
  3 17  1  0
  3 13  2  0
  4  6  1  0
  4 16  1  0
  6 15  1  0
  6 19  1  0
  6  9  1  0
  7 12  1  0
  9  2  1  0
  9 11  1  0
 11  5  1  0
 11 17  1  0
 14 12  1  0
 14 19  1  0
 16  1  1  0
 16 14  1  0
 17  8  1  0
 18  2  2  0
 19 10  1  0
M  END
$$$$

     RDKit          3D

 10  9  0  0  0  0  0  0  0  0999 V2000
   43.8040   39.6690   30.1910 N   0  0  0  0  0  0  0  0  0  0  0  0
   41.4290   36.0610   28.5900 O   0  0  0  0  0  0  0  0  0  0  0  0
   44.4170   38.6850   31.1320 C   0  0  0  0  0  0  0  0  0  0  0  0
   43.9170   35.7760   33.2540 N   0  0  0  0  0  0  0  0  0  0  0  0
   44.5280   36.7690   32.3880 C   0  0  0  0  0  0  0  0  0  0  0  0
   42.3910   37.6170   31.9210 O   0  0  0  0  0  0  0  0  0  0  0  0
   43.6460   37.4000   31.2120 C   0  0  0  0  0  0  0  0  0  0  0  0
   43.3920   37.3430   29.5950 C   0  0  0  0  0  0  0  0  0  0  0  0
   41.8590   37.1790   28.9660 C   0  0  0  0  0  0  0  0  0  0  0  0
   41.1720   38.2720   28.8040 O   0  0  0  0  0  0  0  0  0  0  0  0
  1  3  1  0
  2  9  2  0
  3  7  1  0
  5  4  1  0
  7  6  1  0
  7  5  1  0
  8  7  1  0
  9  8  1  0
 10  9  1  0
M  END
$$$$

     RDKit          3D

 20 20  0  0  0  0  0  0  0  0999 V2000
   46.4520   36.6070   34.4250 O   0  0  0  0  0  0  0  0  0  0  0  0
   44.1980   35.6880   34.0270 C   0  0  0  0  0  0  0  0  0  0  0  0
   43.5160   37.2430   25.1720 C   0  0  0  0  0  0  0  0  0  0  0  0
   42.0050   36.8950   30.8560 C   0  0  0  0  0  0  0  0  0  0  0  0
   41.4490   37.5810   28.4420 C   0  0  0  0  0  0  0  0  0  0  0  0
   42.1730   37.7000   27.1900 O   0  0  0  0  0  0  0  0  0  0  0  0
   44.1990   37.6570   26.1020 C   0  0  0  0  0  0  0  0  0  0  0  0
   45.2470   36.5530   33.5140 C   0  0  0  0  0  0  0  0  0  0  0  0
   44.2800   39.1020   26.7660 C   0  0  0  0  0  0  0  0  0  0  0  0
   41.2090   39.0340   28.9640 C   0  0  0  0  0  0  0  0  0  0  0  0
   40.9310   34.8750   31.2140 O   0  0  0  0  0  0  0  0  0  0  0  0
   41.8460   36.7110   29.4600 C   0  0  0  0  0  0  0  0  0  0  0  0
   45.0930   37.3490   32.4140 O   0  0  0  0  0  0  0  0  0  0  0  0
   42.1610   39.9450   28.1020 C   0  0  0  0  0  0  0  0  0  0  0  0
   43.1650   40.5960   28.8590 O   0  0  0  0  0  0  0  0  0  0  0  0
   41.0970   36.2320   31.5050 C   0  0  0  0  0  0  0  0  0  0  0  0
   43.1110   35.8920   31.5390 C   0  0  0  0  0  0  0  0  0  0  0  0
   42.5590   39.0830   26.9230 C   0  0  0  0  0  0  0  0  0  0  0  0
   43.0870   35.3840   33.0290 C   0  0  0  0  0  0  0  0  0  0  0  0
   42.1450   35.8250   33.9820 N   0  0  0  0  0  0  0  0  0  0  0  0
  3  7  2  0
  4 12  1  0
  4 16  1  0
  4 17  1  0
  5 10  1  0
  5 12  1  0
  6  5  1  0
  7  9  1  0
  8  2  1  0
  8  1  1  0
 11 16  1  0
 13  8  2  0
 14 15  1  0
 14 10  1  0
 17 19  1  0
 18  9  1  0
 18  6  1  0
 18 14  1  0
 19 20  1  0
 19  2  1  0
M  END
$$$$

     RDKit          3D

 10  9  0  0  0  0  0  0  0  0999 V2000
   41.4620   38.2320   29.8990 N   0  0  0  0  0  0  0  0  0  0  0  0
   38.0630   41.1960   25.8620 C   0  0  0  0  0  0  0  0  0  0  0  0
   43.1330   36.6890   29.7020 O   0  0  0  0  0  0  0  0  0  0  0  0
   39.7870   39.9780   27.2790 N   0  0  0  0  0  0  0  0  0  0  0  0
   39.0850   39.1650   25.2970 O   0  0  0  0  0  0  0  0  0  0  0  0
   41.1440   36.2300   28.9630 O   0  0  0  0  0  0  0  0  0  0  0  0
   40.5520   38.8150   27.7130 C   0  0  0  0  0  0  0  0  0  0  0  0
   41.9510   37.0460   29.5170 C   0  0  0  0  0  0  0  0  0  0  0  0
   39.0300   40.0440   26.1200 C   0  0  0  0  0  0  0  0  0  0  0  0
   41.2370   39.3610   28.9630 C   0  0  0  0  0  0  0  0  0  0  0  0
  2  9  1  0
  4  7  1  0
  5  9  2  0
  6  8  2  0
  7 10  1  0
  8  3  1  0
  8  1  1  0
  9  4  1  0
 10  1  1  0
M  END
$$$$

     RDKit          3D

 11 12  0  0  0  0  0  0  0  0999 V2000
   43.0720   38.9430   26.5380 O   0  0  0  0  0  0  0  0  0  0  0  0
   42.3720   37.5930   28.3350 C   0  0  0  0  0  0  0  0  0  0  0  0
   41.9920   35.7240   30.9350 N   0  0  0  0  0  0  0  0  0  0  0  0
   42.5700   38.9030   30.8160 C   0  0  0  0  0  0  0  0  0  0  0  0
   42.3540   38.0120   32.1600 C   0  0  0  0  0  0  0  0  0  0  0  0
   42.8970   36.5220   30.3130 C   0  0  0  0  0  0  0  0  0  0  0  0
   42.6970   36.5370   31.8740 C   0  0  0  0  0  0  0  0  0  0  0  0
   42.3810   40.1390   30.0460 O   0  0  0  0  0  0  0  0  0  0  0  0
   43.1470   38.5840   27.5950 C   0  0  0  0  0  0  0  0  0  0  0  0
   41.8670   36.4650   27.8270 O   0  0  0  0  0  0  0  0  0  0  0  0
   42.3430   37.8310   29.7250 C   0  0  0  0  0  0  0  0  0  0  0  0
  1  9  2  0
  2 10  1  0
  3  7  1  0
  4  8  1  0
  4  5  1  0
  6  3  1  0
  6  7  1  0
  7  5  1  0
  9  2  1  0
 11  2  1  0
 11  6  1  0
 11  4  1  0
M  END
$$$$

     RDKit          3D

 25 26  0  0  0  0  0  0  0  0999 V2000
   40.7020   40.9840   27.7410 C   0  0  0  0  0  0  0  0  0  0  0  0
   42.0690   39.1680   29.4280 C   0  0  0  0  0  0  0  0  0  0  0  0
   40.2390   39.5040   27.8910 C   0  0  0  0  0  0  0  0  0  0  0  0
   44.5870   38.2870   29.2910 C   0  0  0  0  0  0  0  0  0  0  0  0
   38.5500   35.3580   37.0990 N   0  0  0  0  0  0  0  0  0  0  0  0
   43.2470   36.1400   31.0360 N   0  0  0  0  0  0  0  0  0  0  0  0
   42.7160   36.2460   32.9450 C   0  0  0  0  0  0  0  0  0  0  0  0
   41.2510   37.4340   34.4890 C   0  0  0  0  0  0  0  0  0  0  0  0
   37.7460   35.3410   34.9940 C   0  0  0  0  0  0  0  0  0  0  0  0
   42.5970   40.6020   29.3040 C   0  0  0  0  0  0  0  0  0  0  0  0
   41.4090   38.5740   28.1570 C   0  0  0  0  0  0  0  0  0  0  0  0
   42.7090   36.8650   30.0500 C   0  0  0  0  0  0  0  0  0  0  0  0
   42.2200   41.1200   27.9090 C   0  0  0  0  0  0  0  0  0  0  0  0
   40.4620   38.3400   34.3980 O   0  0  0  0  0  0  0  0  0  0  0  0
   39.9140   35.5020   35.1130 C   0  0  0  0  0  0  0  0  0  0  0  0
   37.2940   35.0410   37.8560 C   0  0  0  0  0  0  0  0  0  0  0  0
   40.9300   36.3340   35.1880 N   0  0  0  0  0  0  0  0  0  0  0  0
   38.7030   35.5270   35.7430 C   0  0  0  0  0  0  0  0  0  0  0  0
   43.2140   38.3000   29.9360 C   0  0  0  0  0  0  0  0  0  0  0  0
   37.9790   36.3000   37.9350 C   0  0  0  0  0  0  0  0  0  0  0  0
   43.0990   34.9900   33.6950 C   0  0  0  0  0  0  0  0  0  0  0  0
   42.8900   40.0840   27.0580 C   0  0  0  0  0  0  0  0  0  0  0  0
   42.6530   37.4610   33.8550 C   0  0  0  0  0  0  0  0  0  0  0  0
   43.9390   36.5420   32.0720 C   0  0  0  0  0  0  0  0  0  0  0  0
   41.6510   36.3740   29.4580 O   0  0  0  0  0  0  0  0  0  0  0  0
  1  3  1  0
  1 13  1  0
  2 19  1  0
  3 11  1  0
  5 16  1  0
  5 20  1  0
  6 24  1  0
  7 21  1  0
  7 23  1  0
  8 17  1  0
  9 18  2  0
 10  2  1  0
 11  2  1  0
 12  6  1  0
 13 22  1  0
 13 10  1  0
 14  8  2  0
 15 17  1  0
 15 18  1  0
 16 20  1  0
 18  5  1  0
 19  4  1  0
 19 12  1  0
 23  8  1  0
 24  7  1  0
 25 12  2  0
M  END
$$$$

     RDKit          3D

 12 13  0  0  0  0  0  0  0  0999 V2000
   43.1100   36.3980   32.6690 C   0  0  0  0  0  0  0  0  0  0  0  0
   41.3060   35.0460   33.8180 N   0  0  0  0  0  0  0  0  0  0  0  0
   41.9340   35.4520   32.5020 C   0  0  0  0  0  0  0  0  0  0  0  0
   40.9750   36.2240   31.6220 C   0  0  0  0  0  0  0  0  0  0  0  0
   41.9450   38.1140   30.5910 C   0  0  0  0  0  0  0  0  0  0  0  0
   45.4970   36.5970   32.9840 C   0  0  0  0  0  0  0  0  0  0  0  0
   45.1360   37.0300   31.5300 C   0  0  0  0  0  0  0  0  0  0  0  0
   43.1180   37.3200   30.0210 C   0  0  0  0  0  0  0  0  0  0  0  0
   44.2540   35.8830   33.5630 C   0  0  0  0  0  0  0  0  0  0  0  0
   45.6380   37.3230   30.1180 C   0  0  0  0  0  0  0  0  0  0  0  0
   41.2970   37.5840   31.7630 O   0  0  0  0  0  0  0  0  0  0  0  0
   43.7120   36.6150   31.2650 C   0  0  0  0  0  0  0  0  0  0  0  0
  1  9  1  0
  3  1  1  0
  3  2  1  0
  4 11  1  0
  4  3  1  0
  5 11  1  0
  6  9  1  0
  7 10  1  0
  7  6  1  0
  8  5  1  0
 12  8  1  0
 12  7  1  0
 12  1  1  0
M  END
$$$$

     RDKit          3D

 28 29  0  0  0  0  0  0  0  0999 V2000
   44.2350   36.9970   32.3620 C   0  0  0  0  0  0  0  0  0  0  0  0
   39.5450   35.4420   33.8110 C   0  0  0  0  0  0  0  0  0  0  0  0
   41.0410   37.4860   26.8840 N   0  0  0  0  0  0  0  0  0  0  0  0
   41.0790   39.7170   28.1920 C   0  0  0  0  0  0  0  0  0  0  0  0
   47.0130   35.9180   32.9750 C   0  0  0  0  0  0  0  0  0  0  0  0
   44.0850   37.9670   33.0830 O   0  0  0  0  0  0  0  0  0  0  0  0
   48.4980   37.1020   31.3780 C   0  0  0  0  0  0  0  0  0  0  0  0
   40.4450   38.1640   24.5970 C   0  0  0  0  0  0  0  0  0  0  0  0
   41.9290   37.8950   31.2730 O   0  0  0  0  0  0  0  0  0  0  0  0
   41.6930   37.0260   27.8520 C   0  0  0  0  0  0  0  0  0  0  0  0
   41.7420   36.0610   32.4210 C   0  0  0  0  0  0  0  0  0  0  0  0
   41.8960   35.3820   34.6240 O   0  0  0  0  0  0  0  0  0  0  0  0
   45.1970   36.4830   31.6670 N   0  0  0  0  0  0  0  0  0  0  0  0
   40.8200   38.7670   29.2730 C   0  0  0  0  0  0  0  0  0  0  0  0
   41.1640   34.9850   33.4710 S   0  0  0  0  0  0  0  0  0  0  0  0
   42.9730   37.7440   24.6420 C   0  0  0  0  0  0  0  0  0  0  0  0
   42.3290   36.9820   30.1760 C   0  0  0  0  0  0  0  0  0  0  0  0
   43.1200   35.9130   32.0280 C   0  0  0  0  0  0  0  0  0  0  0  0
   40.9810   37.0280   31.9490 C   0  0  0  0  0  0  0  0  0  0  0  0
   41.5070   37.5770   29.1870 C   0  0  0  0  0  0  0  0  0  0  0  0
   47.6390   36.2500   30.5160 C   0  0  0  0  0  0  0  0  0  0  0  0
   41.4800   37.0890   25.2600 S   0  0  0  0  0  0  0  0  0  0  0  0
   46.4730   36.3150   31.6090 C   0  0  0  0  0  0  0  0  0  0  0  0
   41.1610   33.6050   32.7890 C   0  0  0  0  0  0  0  0  0  0  0  0
   48.3630   36.5200   32.7980 C   0  0  0  0  0  0  0  0  0  0  0  0
   43.1510   36.1390   30.4890 C   0  0  0  0  0  0  0  0  0  0  0  0
   42.6170   36.1400   27.8280 O   0  0  0  0  0  0  0  0  0  0  0  0
   41.0450   35.6300   25.1950 C   0  0  0  0  0  0  0  0  0  0  0  0
  1  6  2  0
  3 10  1  0
  4 14  1  0
  7 25  1  0
  8 22  1  0
  9 19  1  0
 10 20  1  0
 11 15  1  0
 13  1  1  0
 15  2  1  0
 15 12  1  0
 16 22  1  0
 17 26  1  0
 17  9  1  0
 18  1  1  0
 18 11  1  0
 19 11  1  0
 20 14  1  0
 20 17  2  3
 21  7  1  0
 21 23  1  0
 22  3  1  0
 23 13  1  0
 23  5  1  0
 24 15  1  0
 25  5  1  0
 26 18  1  0
 27 10  2  0
 28 22  1  0
M  END
$$$$

     RDKit          3D

  8  7  0  0  0  0  0  0  0  0999 V2000
   45.3400   38.1680   31.1200 C   0  0  0  0  0  0  0  0  0  0  0  0
   42.9010   37.9130   30.3200 C   0  0  0  0  0  0  0  0  0  0  0  0
   44.1160   37.2360   30.9890 C   0  0  0  0  0  0  0  0  0  0  0  0
   41.5130   37.2490   30.1970 C   0  0  0  0  0  0  0  0  0  0  0  0
   41.2710   36.1520   31.2080 C   0  0  0  0  0  0  0  0  0  0  0  0
   43.0280   39.0260   29.8270 O   0  0  0  0  0  0  0  0  0  0  0  0
   41.7370   35.4830   32.1690 O   0  0  0  0  0  0  0  0  0  0  0  0
   44.4810   36.1510   30.1260 O   0  0  0  0  0  0  0  0  0  0  0  0
  2  3  1  0
  3  1  1  0
  4  2  1  0
  4  5  1  0
  5  7  2  0
  6  2  2  0
  8  3  1  0
M  END
$$$$
