
     RDKit          3D

 11 10  0  0  0  0  0  0  0  0999 V2000
   39.1270   41.1890   28.3620 C   0  0  0  0  0  0  0  0  0  0  0  0
   39.1660   41.6540   26.8720 C   0  0  0  0  0  0  0  0  0  0  0  0
   40.6850   43.5770   27.5080 O   0  0  0  0  0  0  0  0  0  0  0  0
   40.6580   39.8600   29.6990 N   0  0  0  0  0  0  0  0  0  0  0  0
   38.1540   40.0350   28.5530 C   0  0  0  0  0  0  0  0  0  0  0  0
   38.8310   38.7570   28.3680 O   0  0  0  0  0  0  0  0  0  0  0  0
   38.8900   42.3220   29.2590 O   0  0  0  0  0  0  0  0  0  0  0  0
   37.8090   41.6070   26.3710 O   0  0  0  0  0  0  0  0  0  0  0  0
   40.5310   40.7570   28.7240 C   0  0  0  0  0  0  0  0  0  0  0  0
   41.5110   41.2530   28.1080 O   0  0  0  0  0  0  0  0  0  0  0  0
   39.7860   43.0310   26.5900 C   0  0  0  0  0  0  0  0  0  0  0  0
  1  5  1  0
  1  9  1  0
  1  7  1  0
  2  8  1  0
  2  1  1  0
  6  5  1  0
  9  4  1  0
 10  9  2  0
 11  2  1  0
 11  3  1  0
M  END
$$$$

     RDKit          3D

 13 13  0  0  0  0  0  0  0  0999 V2000
   37.4980   39.1640   24.4460 I   0  0  0  0  0  0  0  0  0  0  0  0
   38.6100   38.8130   27.1270 O   0  0  0  0  0  0  0  0  0  0  0  0
   40.2010   41.7090   27.2240 O   0  0  0  0  0  0  0  0  0  0  0  0
   38.7380   41.9830   25.1750 O   0  0  0  0  0  0  0  0  0  0  0  0
   41.0870   42.0170   28.4460 C   0  0  0  0  0  0  0  0  0  0  0  0
   39.2820   39.3420   28.2330 C   0  0  0  0  0  0  0  0  0  0  0  0
   39.2170   38.3780   29.2330 O   0  0  0  0  0  0  0  0  0  0  0  0
   38.1130   39.7970   26.1390 C   0  0  0  0  0  0  0  0  0  0  0  0
   38.8620   41.7440   27.5590 C   0  0  0  0  0  0  0  0  0  0  0  0
   39.1080   41.1330   29.7870 O   0  0  0  0  0  0  0  0  0  0  0  0
   38.7550   40.7000   28.8030 C   0  0  0  0  0  0  0  0  0  0  0  0
   41.3310   41.0270   29.7190 O   0  0  0  0  0  0  0  0  0  0  0  0
   38.1880   41.2960   26.3270 C   0  0  0  0  0  0  0  0  0  0  0  0
  2  6  1  0
  3  5  1  0
  5 12  1  0
  6 11  1  0
  6  7  1  0
  8  1  1  0
  8 13  1  0
  8  2  1  0
  9  3  1  0
  9 11  1  0
 11 10  1  0
 13  4  1  0
 13  9  1  0
M  END
$$$$

     RDKit          3D

 18 19  0  0  0  0  0  0  0  0999 V2000
   37.1750   40.6460   24.1010 C   0  0  0  0  0  0  0  0  0  0  0  0
   37.5960   39.2900   27.1250 C   0  0  0  0  0  0  0  0  0  0  0  0
   42.1190   40.4960   28.0820 C   0  0  0  0  0  0  0  0  0  0  0  0
   39.3160   37.3430   29.6680 C   0  0  0  0  0  0  0  0  0  0  0  0
   40.2360   42.1150   29.4650 C   0  0  0  0  0  0  0  0  0  0  0  0
   38.2930   38.2740   26.4490 O   0  0  0  0  0  0  0  0  0  0  0  0
   39.7410   39.8470   28.5800 C   0  0  0  0  0  0  0  0  0  0  0  0
   37.2480   41.1120   25.5710 C   0  0  0  0  0  0  0  0  0  0  0  0
   40.8490   40.9280   28.7850 C   0  0  0  0  0  0  0  0  0  0  0  0
   35.3410   42.2920   24.6460 C   0  0  0  0  0  0  0  0  0  0  0  0
   38.7400   41.0680   26.3440 C   0  0  0  0  0  0  0  0  0  0  0  0
   39.4690   41.6270   25.8140 O   0  0  0  0  0  0  0  0  0  0  0  0
   35.7440   41.1310   23.6110 C   0  0  0  0  0  0  0  0  0  0  0  0
   36.5880   42.5050   25.6110 C   0  0  0  0  0  0  0  0  0  0  0  0
   38.7520   40.1590   27.4930 N   0  0  0  0  0  0  0  0  0  0  0  0
   36.5520   40.0550   26.4630 C   0  0  0  0  0  0  0  0  0  0  0  0
   39.9640   39.2690   30.8990 O   0  0  0  0  0  0  0  0  0  0  0  0
   39.6150   38.8250   29.7180 C   0  0  0  0  0  0  0  0  0  0  0  0
  1  8  1  0
  2  6  1  0
  2 15  1  0
  3  9  1  0
  7  9  1  0
  7 18  1  0
  8 14  1  0
  8 11  1  0
  8 16  1  0
  9  5  1  0
 10 14  1  0
 11 15  1  0
 12 11  2  0
 13  1  1  0
 13 10  1  0
 15  7  1  0
 16  2  1  0
 18  4  1  0
 18 17  1  0
M  END
$$$$

     RDKit          3D

  7  6  0  0  0  0  0  0  0  0999 V2000
   38.2130   39.5600   28.1150 C   0  0  0  0  0  0  0  0  0  0  0  0
   40.0030   42.2150   27.7800 C   0  0  0  0  0  0  0  0  0  0  0  0
   39.4580   39.7820   28.9290 C   0  0  0  0  0  0  0  0  0  0  0  0
   39.5400   41.0170   29.3010 O   0  0  0  0  0  0  0  0  0  0  0  0
   38.2630   40.8310   27.3040 C   0  0  0  0  0  0  0  0  0  0  0  0
   39.7510   40.9910   27.0670 C   0  0  0  0  0  0  0  0  0  0  0  0
   40.9990   40.3170   27.2700 O   0  0  0  0  0  0  0  0  0  0  0  0
  1  3  1  0
  3  4  1  0
  5  1  1  0
  6  7  1  0
  6  5  1  0
  6  2  1  0
M  END
$$$$

     RDKit          3D

 20 21  0  0  0  0  0  0  0  0999 V2000
   37.2420   38.9320   23.0950 C   0  0  0  0  0  0  0  0  0  0  0  0
   40.4060   40.3610   30.3970 O   0  0  0  0  0  0  0  0  0  0  0  0
   37.0290   41.3500   26.4170 C   0  0  0  0  0  0  0  0  0  0  0  0
   35.6930   41.5870   25.6810 C   0  0  0  0  0  0  0  0  0  0  0  0
   40.0240   39.2610   29.9310 C   0  0  0  0  0  0  0  0  0  0  0  0
   38.9000   39.7550   27.9760 C   0  0  0  0  0  0  0  0  0  0  0  0
   36.9300   39.7510   24.3390 C   0  0  0  0  0  0  0  0  0  0  0  0
   38.1330   38.2660   29.7000 C   0  0  0  0  0  0  0  0  0  0  0  0
   38.7960   41.4960   27.6820 C   0  0  0  0  0  0  0  0  0  0  0  0
   38.2730   40.7210   25.8230 C   0  0  0  0  0  0  0  0  0  0  0  0
   39.3580   36.4820   28.6470 C   0  0  0  0  0  0  0  0  0  0  0  0
   39.0030   37.2360   29.9290 C   0  0  0  0  0  0  0  0  0  0  0  0
   38.9510   39.2050   29.0350 C   0  0  0  0  0  0  0  0  0  0  0  0
   36.9300   38.2560   28.6590 O   0  0  0  0  0  0  0  0  0  0  0  0
   40.2880   37.8640   30.3340 C   0  0  0  0  0  0  0  0  0  0  0  0
   34.9820   42.2900   26.1820 O   0  0  0  0  0  0  0  0  0  0  0  0
   35.9510   40.6930   24.3850 C   0  0  0  0  0  0  0  0  0  0  0  0
   37.5690   41.8390   27.5490 C   0  0  0  0  0  0  0  0  0  0  0  0
   37.8500   39.2940   25.4850 C   0  0  0  0  0  0  0  0  0  0  0  0
   36.3400   39.4190   22.1850 O   0  0  0  0  0  0  0  0  0  0  0  0
  1  7  1  0
  3 18  1  0
  4 16  2  0
  4  3  1  0
  5 15  1  0
  5  2  2  0
  7 17  2  0
  7 19  1  0
  8 14  1  0
  8 12  1  0
  9  6  1  0
 10  3  1  0
 12 11  1  0
 12 15  1  0
 13  6  1  0
 13  8  1  0
 13  5  1  0
 17  4  1  0
 18  9  1  0
 19 10  1  0
 20  1  1  0
M  END
$$$$

     RDKit          3D

  8  7  0  0  0  0  0  0  0  0999 V2000
   38.8660   41.5570   27.9430 C   0  0  0  0  0  0  0  0  0  0  0  0
   40.9450   41.0540   29.4350 C   0  0  0  0  0  0  0  0  0  0  0  0
   39.8440   39.5950   26.8650 O   0  0  0  0  0  0  0  0  0  0  0  0
   37.7920   39.4100   27.5380 O   0  0  0  0  0  0  0  0  0  0  0  0
   39.8430   41.9890   29.0240 C   0  0  0  0  0  0  0  0  0  0  0  0
   40.4690   39.7040   29.7330 N   0  0  0  0  0  0  0  0  0  0  0  0
   39.7020   43.1130   29.6000 O   0  0  0  0  0  0  0  0  0  0  0  0
   38.8340   40.0990   27.4060 C   0  0  0  0  0  0  0  0  0  0  0  0
  1  5  1  0
  2  6  1  0
  3  8  2  0
  5  2  1  0
  5  7  2  0
  8  4  1  0
  8  1  1  0
M  END
$$$$

     RDKit          3D

 15 14  0  0  0  0  0  0  0  0999 V2000
   40.0780   42.4130   26.8950 O   0  0  0  0  0  0  0  0  0  0  0  0
   39.6900   38.2930   29.8890 C   0  0  0  0  0  0  0  0  0  0  0  0
   40.8180   39.6840   27.9790 O   0  0  0  0  0  0  0  0  0  0  0  0
   36.8420   40.4850   26.6900 C   0  0  0  0  0  0  0  0  0  0  0  0
   39.1590   41.7570   26.2170 S   0  0  0  0  0  0  0  0  0  0  0  0
   39.4930   39.5350   28.7230 P   0  0  0  0  0  0  0  0  0  0  0  0
   36.7090   43.3720   23.9040 O   0  0  0  0  0  0  0  0  0  0  0  0
   39.1880   40.7410   29.4820 O   0  0  0  0  0  0  0  0  0  0  0  0
   37.8200   38.6780   25.3640 C   0  0  0  0  0  0  0  0  0  0  0  0
   36.4890   41.5040   25.5530 C   0  0  0  0  0  0  0  0  0  0  0  0
   38.2030   39.7470   26.4410 C   0  0  0  0  0  0  0  0  0  0  0  0
   38.5830   38.9010   27.5760 N   0  0  0  0  0  0  0  0  0  0  0  0
   35.8370   42.4750   24.9080 C   0  0  0  0  0  0  0  0  0  0  0  0
   38.1010   42.6180   25.9300 O   0  0  0  0  0  0  0  0  0  0  0  0
   39.3250   40.3790   25.8630 O   0  0  0  0  0  0  0  0  0  0  0  0
  3  6  2  0
  5 14  2  0
  5  1  1  0
  6  8  1  0
  6  2  1  0
  7 13  1  0
 10  4  1  0
 11  9  1  0
 11  4  1  0
 11 12  1  0
 12  6  1  0
 13 10  1  0
 15  5  1  0
 15 11  1  0
M  END
$$$$

     RDKit          3D

 18 19  0  0  0  0  0  0  0  0999 V2000
   35.5810   36.6420   28.7780 C   0  0  0  0  0  0  0  0  0  0  0  0
   38.0620   36.3040   28.6310 N   0  0  0  0  0  0  0  0  0  0  0  0
   38.7090   37.5730   29.8400 C   0  0  0  0  0  0  0  0  0  0  0  0
   40.5250   38.9850   31.0740 C   0  0  0  0  0  0  0  0  0  0  0  0
   38.0720   41.2120   28.0150 O   0  0  0  0  0  0  0  0  0  0  0  0
   38.4230   38.4440   26.6570 N   0  0  0  0  0  0  0  0  0  0  0  0
   36.7770   35.7120   28.8310 C   0  0  0  0  0  0  0  0  0  0  0  0
   33.1030   35.5750   28.8210 C   0  0  0  0  0  0  0  0  0  0  0  0
   34.7570   37.8520   29.2730 C   0  0  0  0  0  0  0  0  0  0  0  0
   36.6930   35.7920   27.1010 C   0  0  0  0  0  0  0  0  0  0  0  0
   38.2080   40.1350   28.4700 C   0  0  0  0  0  0  0  0  0  0  0  0
   39.0850   39.3080   25.6910 C   0  0  0  0  0  0  0  0  0  0  0  0
   34.1380   36.6000   28.2460 C   0  0  0  0  0  0  0  0  0  0  0  0
   38.9110   39.8600   24.6960 O   0  0  0  0  0  0  0  0  0  0  0  0
   38.4950   39.8570   29.7220 N   0  0  0  0  0  0  0  0  0  0  0  0
   38.0960   37.7010   28.8360 C   0  0  0  0  0  0  0  0  0  0  0  0
   37.7070   38.7740   27.8860 C   0  0  0  0  0  0  0  0  0  0  0  0
   39.5110   38.8370   29.9090 C   0  0  0  0  0  0  0  0  0  0  0  0
  1  7  1  0
  1  9  1  0
  2  7  1  0
  3 18  1  0
  5 11  2  0
  7 10  1  0
 11 15  1  0
 12  6  1  0
 13  1  1  0
 13  8  1  0
 13  9  1  0
 14 12  2  0
 15 18  1  0
 16  2  1  0
 16  3  1  0
 17  6  1  0
 17 11  1  0
 17 16  1  0
 18  4  1  0
M  END
$$$$

     RDKit          3D

 12 12  0  0  0  0  0  0  0  0999 V2000
   40.7100   39.2100   26.1500 N   0  0  0  0  0  0  0  0  0  0  0  0
   36.2910   41.7790   26.0270 C   0  0  0  0  0  0  0  0  0  0  0  0
   39.5430   39.1300   29.1840 O   0  0  0  0  0  0  0  0  0  0  0  0
   37.3660   42.7140   26.2250 O   0  0  0  0  0  0  0  0  0  0  0  0
   38.7250   42.0640   26.0100 S   0  0  0  0  0  0  0  0  0  0  0  0
   36.6230   40.2590   26.1070 C   0  0  0  0  0  0  0  0  0  0  0  0
   37.8190   39.7200   26.6330 C   0  0  0  0  0  0  0  0  0  0  0  0
   40.4640   40.5320   26.5270 C   0  0  0  0  0  0  0  0  0  0  0  0
   37.9970   38.4250   26.7840 O   0  0  0  0  0  0  0  0  0  0  0  0
   38.9390   40.6370   27.1270 C   0  0  0  0  0  0  0  0  0  0  0  0
   38.9360   40.4350   28.7630 C   0  0  0  0  0  0  0  0  0  0  0  0
   40.0560   42.9980   25.6020 O   0  0  0  0  0  0  0  0  0  0  0  0
  1  8  1  0
  2  6  1  0
  2  4  1  0
  5 12  1  0
  5  4  1  0
  5 10  1  0
  6  7  2  0
  7  9  1  0
  7 10  1  0
 10  8  1  0
 10 11  1  0
 11  3  1  0
M  END
$$$$

     RDKit          3D

  9  8  0  0  0  0  0  0  0  0999 V2000
   38.5970   40.9070   28.9860 N   0  0  0  0  0  0  0  0  0  0  0  0
   39.2360   42.6300   30.5530 N   0  0  0  0  0  0  0  0  0  0  0  0
   39.2320   39.9410   27.7100 P   0  0  0  0  0  0  0  0  0  0  0  0
   40.9680   41.3410   29.7720 O   0  0  0  0  0  0  0  0  0  0  0  0
   41.0980   40.8930   25.4950 S   0  0  0  0  0  0  0  0  0  0  0  0
   39.5230   41.2540   26.3580 C   0  0  0  0  0  0  0  0  0  0  0  0
   40.5860   39.0520   27.9160 O   0  0  0  0  0  0  0  0  0  0  0  0
   37.9830   38.9610   27.2890 O   0  0  0  0  0  0  0  0  0  0  0  0
   39.7390   41.7220   29.7780 C   0  0  0  0  0  0  0  0  0  0  0  0
  1  9  1  0
  3  8  2  0
  3  7  1  0
  3  1  1  0
  4  9  2  0
  5  6  1  0
  6  3  1  0
  9  2  1  0
M  END
$$$$

     RDKit          3D

 12 11  0  0  0  0  0  0  0  0999 V2000
   37.6560   41.2890   25.3780 S   0  0  0  0  0  0  0  0  0  0  0  0
   40.2170   38.4480   28.7500 N   0  0  0  0  0  0  0  0  0  0  0  0
   41.6450   41.1160   30.6880 O   0  0  0  0  0  0  0  0  0  0  0  0
   38.8080   41.9090   28.2490 C   0  0  0  0  0  0  0  0  0  0  0  0
   38.2800   42.1160   24.3120 O   0  0  0  0  0  0  0  0  0  0  0  0
   37.3870   40.0250   24.8190 O   0  0  0  0  0  0  0  0  0  0  0  0
   39.4270   43.2060   28.9460 C   0  0  0  0  0  0  0  0  0  0  0  0
   36.1020   41.9580   25.5940 C   0  0  0  0  0  0  0  0  0  0  0  0
   39.0520   40.6060   29.0530 C   0  0  0  0  0  0  0  0  0  0  0  0
   40.4310   39.7410   29.0950 C   0  0  0  0  0  0  0  0  0  0  0  0
   40.9920   39.8560   30.5680 C   0  0  0  0  0  0  0  0  0  0  0  0
   38.4640   41.6230   26.7450 O   0  0  0  0  0  0  0  0  0  0  0  0
  1  8  1  0
  1 12  1  0
  4  7  1  0
  4  9  1  0
  5  1  1  0
  6  1  1  0
  9 10  1  0
 10  2  1  0
 10 11  1  0
 11  3  1  0
 12  4  1  0
M  END
$$$$

     RDKit          3D

  8  7  0  0  0  0  0  0  0  0999 V2000
   40.6140   40.8190   28.3970 C   0  0  0  0  0  0  0  0  0  0  0  0
   40.2580   42.2790   28.8470 C   0  0  0  0  0  0  0  0  0  0  0  0
   41.6480   40.3060   29.3870 C   0  0  0  0  0  0  0  0  0  0  0  0
   41.3240   40.8850   27.0280 C   0  0  0  0  0  0  0  0  0  0  0  0
   40.9110   43.2830   28.3680 O   0  0  0  0  0  0  0  0  0  0  0  0
   39.5550   39.8190   28.3610 O   0  0  0  0  0  0  0  0  0  0  0  0
   39.3800   42.5390   29.7190 O   0  0  0  0  0  0  0  0  0  0  0  0
   38.4860   39.6370   27.4680 C   0  0  0  0  0  0  0  0  0  0  0  0
  1  2  1  0
  1  3  1  0
  2  7  1  0
  4  1  1  0
  5  2  2  0
  6  1  1  0
  8  6  1  0
M  END
$$$$

     RDKit          3D

 14 14  0  0  0  0  0  0  0  0999 V2000
   38.7240   39.4030   28.9380 C   0  0  0  0  0  0  0  0  0  0  0  0
   39.5640   37.3200   29.9790 C   0  0  0  0  0  0  0  0  0  0  0  0
   40.6140   42.3550   27.6550 O   0  0  0  0  0  0  0  0  0  0  0  0
   37.5690   41.3290   28.0170 O   0  0  0  0  0  0  0  0  0  0  0  0
   40.9590   41.5380   30.0160 C   0  0  0  0  0  0  0  0  0  0  0  0
   39.7800   38.7530   29.7050 C   0  0  0  0  0  0  0  0  0  0  0  0
   38.9020   40.8330   28.1980 C   0  0  0  0  0  0  0  0  0  0  0  0
   41.9400   40.2770   29.7190 C   0  0  0  0  0  0  0  0  0  0  0  0
   42.7850   39.9630   28.5710 F   0  0  0  0  0  0  0  0  0  0  0  0
   37.5110   38.8900   28.7470 O   0  0  0  0  0  0  0  0  0  0  0  0
   41.1950   39.0280   30.0320 O   0  0  0  0  0  0  0  0  0  0  0  0
   39.7680   41.9500   28.8750 C   0  0  0  0  0  0  0  0  0  0  0  0
   41.6080   43.0570   30.6140 S   0  0  0  0  0  0  0  0  0  0  0  0
   40.1370   43.7320   30.7240 O   0  0  0  0  0  0  0  0  0  0  0  0
  1 10  1  0
  1  6  1  0
  5 13  1  0
  6  2  1  0
  6 11  1  0
  7  4  1  0
  7 12  1  0
  7  1  1  0
  8  9  1  0
  8  5  1  0
  8 11  1  0
 12  3  1  0
 12  5  1  0
 13 14  2  0
M  END
$$$$

     RDKit          3D

 15 14  0  0  0  0  0  0  0  0999 V2000
   37.8900   38.1860   25.2750 O   0  0  0  0  0  0  0  0  0  0  0  0
   39.1770   40.2170   25.4630 C   0  0  0  0  0  0  0  0  0  0  0  0
   39.3080   37.3190   30.4950 C   0  0  0  0  0  0  0  0  0  0  0  0
   38.1480   41.3740   25.3670 C   0  0  0  0  0  0  0  0  0  0  0  0
   39.8350   40.9600   29.6150 C   0  0  0  0  0  0  0  0  0  0  0  0
   38.3910   39.1190   27.3440 N   0  0  0  0  0  0  0  0  0  0  0  0
   40.7630   41.0500   30.7160 N   0  0  0  0  0  0  0  0  0  0  0  0
   38.4950   39.1280   25.9680 C   0  0  0  0  0  0  0  0  0  0  0  0
   36.6890   40.9280   25.4680 C   0  0  0  0  0  0  0  0  0  0  0  0
   38.7310   38.6370   30.0880 C   0  0  0  0  0  0  0  0  0  0  0  0
   39.5890   39.4780   29.2470 C   0  0  0  0  0  0  0  0  0  0  0  0
   39.5750   39.3200   27.7780 C   0  0  0  0  0  0  0  0  0  0  0  0
   37.5940   38.9570   30.4150 O   0  0  0  0  0  0  0  0  0  0  0  0
   38.4850   42.5280   24.4630 C   0  0  0  0  0  0  0  0  0  0  0  0
   40.4620   40.3140   24.9870 C   0  0  0  0  0  0  0  0  0  0  0  0
  1  8  2  0
  2  8  1  0
  4  2  1  0
  4  9  1  0
  5  7  1  0
  6 12  1  0
  8  6  1  0
 10 13  2  0
 10  3  1  0
 11 12  1  0
 11  5  1  0
 11 10  1  0
 14  4  1  0
 15  2  2  0
M  END
$$$$

     RDKit          3D

 10 10  0  0  0  0  0  0  0  0999 V2000
   39.2820   41.8700   28.0050 C   0  0  0  0  0  0  0  0  0  0  0  0
   40.8910   39.0920   28.4430 O   0  0  0  0  0  0  0  0  0  0  0  0
   37.8540   38.6660   26.7850 C   0  0  0  0  0  0  0  0  0  0  0  0
   39.6120   41.0810   29.1410 O   0  0  0  0  0  0  0  0  0  0  0  0
   39.5500   39.6010   28.7320 P   0  0  0  0  0  0  0  0  0  0  0  0
   38.1570   41.1830   27.3180 C   0  0  0  0  0  0  0  0  0  0  0  0
   37.7730   41.9060   26.0170 C   0  0  0  0  0  0  0  0  0  0  0  0
   38.6990   38.7890   29.4350 O   0  0  0  0  0  0  0  0  0  0  0  0
   40.3780   41.9870   26.9710 O   0  0  0  0  0  0  0  0  0  0  0  0
   38.7550   39.8400   27.0950 C   0  0  0  0  0  0  0  0  0  0  0  0
  1  9  1  0
  1  4  1  0
  5  2  2  0
  5  4  1  0
  5  8  1  0
  6  7  1  0
  6  1  1  0
 10  3  1  0
 10  6  1  0
 10  5  1  0
M  END
$$$$

     RDKit          3D

  9  9  0  0  0  0  0  0  0  0999 V2000
   39.0430   41.2980   28.8900 C   0  0  0  0  0  0  0  0  0  0  0  0
   40.0880   40.6890   29.5950 C   0  0  0  0  0  0  0  0  0  0  0  0
   40.4440   39.3700   29.3030 C   0  0  0  0  0  0  0  0  0  0  0  0
   38.8240   42.5750   29.3100 O   0  0  0  0  0  0  0  0  0  0  0  0
   40.6060   41.6170   30.4290 O   0  0  0  0  0  0  0  0  0  0  0  0
   38.7570   39.1840   27.6240 N   0  0  0  0  0  0  0  0  0  0  0  0
   39.7320   38.5980   28.3390 C   0  0  0  0  0  0  0  0  0  0  0  0
   37.6550   41.1900   27.0940 N   0  0  0  0  0  0  0  0  0  0  0  0
   38.4760   40.4950   27.8160 C   0  0  0  0  0  0  0  0  0  0  0  0
  1  4  1  0
  1  2  1  0
  2  5  1  0
  3  2  2  0
  6  9  1  0
  6  7  2  0
  7  3  1  0
  8  9  1  0
  9  1  2  0
M  END
$$$$

     RDKit          3D

 14 14  0  0  0  0  0  0  0  0999 V2000
   40.1980   39.3260   27.6380 N   0  0  0  0  0  0  0  0  0  0  0  0
   41.9090   41.2860   26.6160 O   0  0  0  0  0  0  0  0  0  0  0  0
   38.1400   38.4930   26.2530 O   0  0  0  0  0  0  0  0  0  0  0  0
   38.2170   40.7950   27.1430 O   0  0  0  0  0  0  0  0  0  0  0  0
   39.2860   41.5570   27.6970 C   0  0  0  0  0  0  0  0  0  0  0  0
   39.0880   40.5750   24.7620 C   0  0  0  0  0  0  0  0  0  0  0  0
   38.7960   39.6690   26.4000 P   0  0  0  0  0  0  0  0  0  0  0  0
   35.8120   41.3710   25.7780 C   0  0  0  0  0  0  0  0  0  0  0  0
   38.1930   41.4040   24.8100 C   0  0  0  0  0  0  0  0  0  0  0  0
   40.9600   41.0040   27.8580 P   0  0  0  0  0  0  0  0  0  0  0  0
   41.5100   41.1030   29.3120 O   0  0  0  0  0  0  0  0  0  0  0  0
   38.9090   41.7300   28.9650 O   0  0  0  0  0  0  0  0  0  0  0  0
   36.6480   41.6190   24.4620 C   0  0  0  0  0  0  0  0  0  0  0  0
   36.4340   43.0680   23.8600 C   0  0  0  0  0  0  0  0  0  0  0  0
  1 10  1  0
  4  5  1  0
  5 10  1  0
  5 12  1  0
  6  9  1  0
  6  7  1  0
  7  3  2  0
  7  4  1  0
  7  1  1  0
 10  2  2  0
 10 11  1  0
 13  9  1  0
 13  8  1  0
 14 13  1  0
M  END
$$$$

     RDKit          3D

 19 21  0  0  0  0  0  0  0  0999 V2000
   36.6220   40.7230   25.7790 C   0  0  0  0  0  0  0  0  0  0  0  0
   37.2910   37.5610   24.1300 O   0  0  0  0  0  0  0  0  0  0  0  0
   37.3680   40.6600   26.8080 N   0  0  0  0  0  0  0  0  0  0  0  0
   40.3380   40.2120   29.4270 C   0  0  0  0  0  0  0  0  0  0  0  0
   38.9370   40.1750   28.9390 C   0  0  0  0  0  0  0  0  0  0  0  0
   35.7430   41.9740   23.9150 C   0  0  0  0  0  0  0  0  0  0  0  0
   37.4330   38.4460   24.9780 C   0  0  0  0  0  0  0  0  0  0  0  0
   38.0890   38.2700   25.9950 O   0  0  0  0  0  0  0  0  0  0  0  0
   35.0790   40.3310   22.1940 C   0  0  0  0  0  0  0  0  0  0  0  0
   35.8500   38.0870   22.0480 O   0  0  0  0  0  0  0  0  0  0  0  0
   39.6930   38.9600   29.0710 N   0  0  0  0  0  0  0  0  0  0  0  0
   36.1920   39.3340   22.3620 C   0  0  0  0  0  0  0  0  0  0  0  0
   39.4670   37.9980   30.2490 C   0  0  0  0  0  0  0  0  0  0  0  0
   38.5610   40.7260   27.5240 C   0  0  0  0  0  0  0  0  0  0  0  0
   35.6790   42.1330   25.4540 C   0  0  0  0  0  0  0  0  0  0  0  0
   35.7550   40.3670   23.5690 C   0  0  0  0  0  0  0  0  0  0  0  0
   40.7370   39.6960   26.4910 C   0  0  0  0  0  0  0  0  0  0  0  0
   36.5190   39.7050   24.7470 C   0  0  0  0  0  0  0  0  0  0  0  0
   39.8050   40.9030   26.8000 C   0  0  0  0  0  0  0  0  0  0  0  0
  1  3  1  0
  2  7  2  0
  3 14  1  0
  5 14  1  0
  5 11  1  0
  5  4  1  0
  6 15  1  0
  7  8  1  0
  9 12  1  0
 11  4  1  0
 11 13  1  0
 12 10  1  0
 12 16  1  0
 14 19  1  0
 15  1  1  0
 16  9  1  0
 16  6  1  0
 16 18  1  0
 17 19  1  0
 18  7  1  0
 18  1  2  0
M  END
$$$$

     RDKit          3D

 14 14  0  0  0  0  0  0  0  0999 V2000
   38.3360   38.9580   26.2140 C   0  0  0  0  0  0  0  0  0  0  0  0
   41.9700   40.2900   27.7780 O   0  0  0  0  0  0  0  0  0  0  0  0
   37.5160   41.3740   26.3490 C   0  0  0  0  0  0  0  0  0  0  0  0
   35.3060   41.8890   25.1170 C   0  0  0  0  0  0  0  0  0  0  0  0
   40.9540   40.7670   28.2680 C   0  0  0  0  0  0  0  0  0  0  0  0
   39.6500   40.6100   27.5240 C   0  0  0  0  0  0  0  0  0  0  0  0
   39.4660   39.3040   27.0190 C   0  0  0  0  0  0  0  0  0  0  0  0
   37.3920   40.0110   25.9370 C   0  0  0  0  0  0  0  0  0  0  0  0
   36.5220   42.4070   25.8190 N   0  0  0  0  0  0  0  0  0  0  0  0
   38.6520   41.6370   27.2200 C   0  0  0  0  0  0  0  0  0  0  0  0
   37.1910   43.4900   25.0190 C   0  0  0  0  0  0  0  0  0  0  0  0
   42.0550   40.6710   30.3340 C   0  0  0  0  0  0  0  0  0  0  0  0
   38.1780   37.7510   25.7130 O   0  0  0  0  0  0  0  0  0  0  0  0
   41.0360   41.3200   29.5200 O   0  0  0  0  0  0  0  0  0  0  0  0
  1  7  1  0
  2  5  2  0
  3 10  2  0
  4  9  1  0
  5 14  1  0
  6  5  1  0
  7  6  2  0
  8  1  2  0
  8  3  1  0
  9  3  1  0
 10  6  1  0
 11  9  1  0
 13  1  1  0
 14 12  1  0
M  END
$$$$

     RDKit          3D

  5  4  0  0  0  0  0  0  0  0999 V2000
   39.3220   41.1690   28.1760 C   0  0  0  0  0  0  0  0  0  0  0  0
   40.8870   40.6420   29.6990 O   0  0  0  0  0  0  0  0  0  0  0  0
   40.2420   40.8090   29.0810 C   0  0  0  0  0  0  0  0  0  0  0  0
   38.5180   39.8640   27.8690 C   0  0  0  0  0  0  0  0  0  0  0  0
   38.7560   42.4420   28.5490 O   0  0  0  0  0  0  0  0  0  0  0  0
  1  4  1  0
  1  5  1  0
  1  3  1  0
  3  2  1  0
M  END
$$$$
