
     RDKit          3D

 26 26  0  0  0  0  0  0  0  0999 V2000
   38.4070   38.0310   29.9810 C   0  0  0  0  0  0  0  0  0  0  0  0
   39.5620   40.1910   26.1330 C   0  0  0  0  0  0  0  0  0  0  0  0
   35.8280   38.3910   29.4880 C   0  0  0  0  0  0  0  0  0  0  0  0
   40.7240   38.1950   29.5470 N   0  0  0  0  0  0  0  0  0  0  0  0
   37.8560   38.7280   31.0890 O   0  0  0  0  0  0  0  0  0  0  0  0
   41.0470   40.3860   25.7750 C   0  0  0  0  0  0  0  0  0  0  0  0
   38.9230   42.4150   28.4620 O   0  0  0  0  0  0  0  0  0  0  0  0
   39.9140   39.8460   28.0520 C   0  0  0  0  0  0  0  0  0  0  0  0
   40.0310   41.4370   28.2850 C   0  0  0  0  0  0  0  0  0  0  0  0
   42.0360   41.7020   26.3740 S   0  0  0  0  0  0  0  0  0  0  0  0
   37.0890   39.8050   26.9560 C   0  0  0  0  0  0  0  0  0  0  0  0
   37.1550   38.3030   29.1680 C   0  0  0  0  0  0  0  0  0  0  0  0
   35.3020   40.7570   25.6460 C   0  0  0  0  0  0  0  0  0  0  0  0
   37.8530   42.2800   25.1220 C   0  0  0  0  0  0  0  0  0  0  0  0
   34.0100   36.5780   29.3670 C   0  0  0  0  0  0  0  0  0  0  0  0
   37.5540   38.0850   27.5220 S   0  0  0  0  0  0  0  0  0  0  0  0
   35.8560   39.5640   26.4390 C   0  0  0  0  0  0  0  0  0  0  0  0
   41.4400   42.1020   27.8810 C   0  0  0  0  0  0  0  0  0  0  0  0
   36.1290   40.8950   24.3960 N   0  0  0  0  0  0  0  0  0  0  0  0
   35.4370   36.9310   31.2800 O   0  0  0  0  0  0  0  0  0  0  0  0
   38.2200   40.2030   26.2600 C   0  0  0  0  0  0  0  0  0  0  0  0
   39.6090   38.8460   29.2820 C   0  0  0  0  0  0  0  0  0  0  0  0
   35.1280   37.2580   30.1550 C   0  0  0  0  0  0  0  0  0  0  0  0
   33.9060   41.1770   25.0160 C   0  0  0  0  0  0  0  0  0  0  0  0
   38.6860   36.7000   30.2450 N   0  0  0  0  0  0  0  0  0  0  0  0
   36.7320   42.4400   24.2210 C   0  0  0  0  0  0  0  0  0  0  0  0
  1 25  1  0
  1  5  1  0
  2 21  2  0
  3 23  1  0
  6  2  2  0
  6 10  1  0
  8  9  1  0
  8 22  1  0
  9  7  1  0
 10 18  1  0
 11 17  1  0
 11 16  1  0
 12  3  1  0
 12  1  1  0
 13 24  1  0
 13 17  1  0
 15 23  1  0
 16 12  1  0
 18  9  1  0
 19 13  1  0
 21 11  1  0
 22  4  2  0
 22  1  1  0
 23 20  2  0
 26 19  1  0
 26 14  1  0
M  END
$$$$

     RDKit          3D

  5  4  0  0  0  0  0  0  0  0999 V2000
   39.9510   38.0690   29.4960 C   0  0  0  0  0  0  0  0  0  0  0  0
   39.9240   39.4490   29.1330 N   0  0  0  0  0  0  0  0  0  0  0  0
   38.9500   37.2570   29.4040 C   0  0  0  0  0  0  0  0  0  0  0  0
   38.7200   40.0350   28.6670 O   0  0  0  0  0  0  0  0  0  0  0  0
   40.9490   40.1200   29.2050 O   0  0  0  0  0  0  0  0  0  0  0  0
  2  5  2  0
  2  1  1  0
  3  1  2  0
  4  2  2  0
M  END
$$$$

     RDKit          3D

 15 15  0  0  0  0  0  0  0  0999 V2000
   34.8840   39.9860   25.6750 C   0  0  0  0  0  0  0  0  0  0  0  0
   38.5000   38.5290   29.4160 C   0  0  0  0  0  0  0  0  0  0  0  0
   34.7030   40.4440   24.3750 C   0  0  0  0  0  0  0  0  0  0  0  0
   38.3310   41.1760   26.2840 C   0  0  0  0  0  0  0  0  0  0  0  0
   36.0550   40.1940   26.3330 C   0  0  0  0  0  0  0  0  0  0  0  0
   38.5510   40.7940   28.0660 S   0  0  0  0  0  0  0  0  0  0  0  0
   37.1730   40.6970   25.6290 C   0  0  0  0  0  0  0  0  0  0  0  0
   39.7510   39.3100   29.7680 C   0  0  0  0  0  0  0  0  0  0  0  0
   35.7720   40.8150   23.6380 C   0  0  0  0  0  0  0  0  0  0  0  0
   38.0010   39.1070   28.0850 C   0  0  0  0  0  0  0  0  0  0  0  0
   40.7960   38.7570   28.9430 N   0  0  0  0  0  0  0  0  0  0  0  0
   38.3460   41.0100   23.5680 N   0  0  0  0  0  0  0  0  0  0  0  0
   39.3810   41.8830   25.8570 O   0  0  0  0  0  0  0  0  0  0  0  0
   37.0660   40.8180   24.2650 C   0  0  0  0  0  0  0  0  0  0  0  0
   38.9930   37.2040   29.4560 C   0  0  0  0  0  0  0  0  0  0  0  0
  1  5  1  0
  2 15  1  0
  2  8  1  0
  3  1  2  0
  4  6  1  0
  6 10  1  0
  7  4  1  0
  7  5  2  0
  9 14  2  0
  9  3  1  0
 10  2  1  0
 11  8  1  0
 12 14  1  0
 13  4  2  0
 14  7  1  0
M  END
$$$$

     RDKit          3D

 10 10  0  0  0  0  0  0  0  0999 V2000
   40.9610   39.4990   28.8250 C   0  0  0  0  0  0  0  0  0  0  0  0
   41.8070   39.6320   29.8100 N   0  0  0  0  0  0  0  0  0  0  0  0
   42.3420   41.1430   27.3860 C   0  0  0  0  0  0  0  0  0  0  0  0
   38.6140   38.7090   28.0910 C   0  0  0  0  0  0  0  0  0  0  0  0
   39.5310   37.8470   30.3670 C   0  0  0  0  0  0  0  0  0  0  0  0
   38.8890   39.3170   26.8590 C   0  0  0  0  0  0  0  0  0  0  0  0
   39.6570   38.6430   29.0830 N   0  0  0  0  0  0  0  0  0  0  0  0
   37.2700   38.1270   28.3760 C   0  0  0  0  0  0  0  0  0  0  0  0
   40.1070   40.0500   26.5400 C   0  0  0  0  0  0  0  0  0  0  0  0
   41.1600   40.2430   27.5410 C   0  0  0  0  0  0  0  0  0  0  0  0
  1  7  1  0
  1  2  2  0
  3 10  1  0
  4  8  1  0
  4  7  1  0
  6  4  2  0
  7  5  1  0
  9  6  1  0
  9 10  2  0
 10  1  1  0
M  END
$$$$

     RDKit          3D

 20 20  0  0  0  0  0  0  0  0999 V2000
   38.8120   38.7960   27.9680 O   0  0  0  0  0  0  0  0  0  0  0  0
   38.4350   40.0110   27.3170 C   0  0  0  0  0  0  0  0  0  0  0  0
   37.2510   38.6170   25.3520 C   0  0  0  0  0  0  0  0  0  0  0  0
   36.5820   38.9160   23.9880 C   0  0  0  0  0  0  0  0  0  0  0  0
   38.9590   37.2190   29.8100 C   0  0  0  0  0  0  0  0  0  0  0  0
   32.3490   39.9210   24.5630 C   0  0  0  0  0  0  0  0  0  0  0  0
   39.3300   40.2140   24.9080 O   0  0  0  0  0  0  0  0  0  0  0  0
   31.0400   40.6200   24.2530 C   0  0  0  0  0  0  0  0  0  0  0  0
   40.6180   39.9290   25.3490 C   0  0  0  0  0  0  0  0  0  0  0  0
   41.1010   40.1200   26.7180 O   0  0  0  0  0  0  0  0  0  0  0  0
   37.2240   39.8080   26.3170 C   0  0  0  0  0  0  0  0  0  0  0  0
   34.8930   40.4380   25.1360 C   0  0  0  0  0  0  0  0  0  0  0  0
   35.0870   39.2630   24.1340 C   0  0  0  0  0  0  0  0  0  0  0  0
   40.5690   41.1990   27.4840 C   0  0  0  0  0  0  0  0  0  0  0  0
   41.2940   42.0630   28.0510 O   0  0  0  0  0  0  0  0  0  0  0  0
   39.0860   41.3860   27.5170 C   0  0  0  0  0  0  0  0  0  0  0  0
   39.5000   38.4550   29.2010 C   0  0  0  0  0  0  0  0  0  0  0  0
   40.6990   39.0810   29.7000 N   0  0  0  0  0  0  0  0  0  0  0  0
   33.3860   40.8360   25.2920 C   0  0  0  0  0  0  0  0  0  0  0  0
   36.3860   41.2880   25.7600 S   0  0  0  0  0  0  0  0  0  0  0  0
  1 17  1  0
  2 16  1  0
  2  1  1  0
  3 11  1  0
  4 13  1  0
  4  3  1  0
  6 19  1  0
  7  9  1  0
  8  6  1  0
  9 10  1  0
 10 14  1  0
 11  2  1  0
 12 19  2  3
 12 20  1  0
 13 12  1  0
 14 16  1  0
 14 15  2  0
 17 18  1  0
 17  5  1  0
 20 11  1  0
M  END
$$$$

     RDKit          3D

  5  4  0  0  0  0  0  0  0  0999 V2000
   38.5230   40.1940   28.1820 O   0  0  0  0  0  0  0  0  0  0  0  0
   41.4490   40.4230   30.2940 N   0  0  0  0  0  0  0  0  0  0  0  0
   40.4480   39.8870   29.7940 C   0  0  0  0  0  0  0  0  0  0  0  0
   39.0120   37.8230   28.7150 N   0  0  0  0  0  0  0  0  0  0  0  0
   39.4520   39.2950   28.7160 C   0  0  0  0  0  0  0  0  0  0  0  0
  1  5  2  0
  3  2  3  0
  4  5  1  0
  5  3  1  0
M  END
$$$$

     RDKit          3D

 10 10  0  0  0  0  0  0  0  0999 V2000
   40.3730   39.5060   28.6540 N   0  0  0  0  0  0  0  0  0  0  0  0
   39.2780   37.2060   30.0050 Br  0  0  0  0  0  0  0  0  0  0  0  0
   38.0870   38.8990   27.8000 C   0  0  0  0  0  0  0  0  0  0  0  0
   40.4740   40.6930   27.6930 C   0  0  0  0  0  0  0  0  0  0  0  0
   38.2270   40.0250   26.7080 C   0  0  0  0  0  0  0  0  0  0  0  0
   39.0350   38.9070   29.0490 C   0  0  0  0  0  0  0  0  0  0  0  0
   39.1070   41.1930   27.2140 C   0  0  0  0  0  0  0  0  0  0  0  0
   42.3270   40.6480   29.7550 O   0  0  0  0  0  0  0  0  0  0  0  0
   41.1640   39.8180   29.9100 C   0  0  0  0  0  0  0  0  0  0  0  0
   36.9080   40.5570   26.4920 O   0  0  0  0  0  0  0  0  0  0  0  0
  1  6  1  0
  1  9  1  0
  3  6  1  0
  4  1  1  0
  5 10  1  0
  5  7  1  0
  5  3  1  0
  6  2  1  0
  7  4  1  0
  8  9  1  0
M  END
$$$$

     RDKit          3D

  7  6  0  0  0  0  0  0  0  0999 V2000
   39.0870   39.7500   28.5610 C   0  0  0  0  0  0  0  0  0  0  0  0
   40.7310   39.8340   30.2780 N   0  0  0  0  0  0  0  0  0  0  0  0
   37.8570   39.2140   27.3840 S   0  0  0  0  0  0  0  0  0  0  0  0
   40.0530   38.8860   29.3700 C   0  0  0  0  0  0  0  0  0  0  0  0
   39.5480   37.6290   29.8900 C   0  0  0  0  0  0  0  0  0  0  0  0
   37.1590   40.5650   26.8880 O   0  0  0  0  0  0  0  0  0  0  0  0
   39.9210   40.7110   27.7920 N   0  0  0  0  0  0  0  0  0  0  0  0
  1  7  1  0
  1  4  1  0
  3  1  1  0
  4  5  1  0
  4  2  1  0
  6  3  2  0
M  END
$$$$

     RDKit          3D

 12 13  0  0  0  0  0  0  0  0999 V2000
   38.4620   40.6080   24.5560 C   0  0  0  0  0  0  0  0  0  0  0  0
   38.6290   42.0680   24.5010 C   0  0  0  0  0  0  0  0  0  0  0  0
   40.6120   41.3900   27.5350 N   0  0  0  0  0  0  0  0  0  0  0  0
   39.6290   41.0900   26.5040 C   0  0  0  0  0  0  0  0  0  0  0  0
   38.4210   40.3510   27.0900 C   0  0  0  0  0  0  0  0  0  0  0  0
   40.8440   38.5540   29.5140 N   0  0  0  0  0  0  0  0  0  0  0  0
   38.6990   41.0130   29.4370 O   0  0  0  0  0  0  0  0  0  0  0  0
   39.3330   38.5090   29.1430 C   0  0  0  0  0  0  0  0  0  0  0  0
   38.7140   37.1430   29.4320 C   0  0  0  0  0  0  0  0  0  0  0  0
   39.1870   42.4020   25.8530 C   0  0  0  0  0  0  0  0  0  0  0  0
   38.5890   39.8270   28.5580 C   0  0  0  0  0  0  0  0  0  0  0  0
   38.8260   39.8920   25.8180 N   0  0  0  0  0  0  0  0  0  0  0  0
  2  1  1  0
  2 10  1  0
  4  5  1  0
  4  3  1  0
  5 11  1  0
  8  9  1  0
  8  6  1  0
 10  4  1  0
 11  8  1  0
 11  7  1  0
 12  1  1  0
 12  4  1  0
 12  5  1  0
M  END
$$$$

     RDKit          3D

  7  7  0  0  0  0  0  0  0  0999 V2000
   38.9020   38.4550   29.3640 C   0  0  0  0  0  0  0  0  0  0  0  0
   39.9360   39.2630   28.9900 N   0  0  0  0  0  0  0  0  0  0  0  0
   38.8170   39.3750   28.5090 C   0  0  0  0  0  0  0  0  0  0  0  0
   38.9650   40.0620   26.1420 O   0  0  0  0  0  0  0  0  0  0  0  0
   39.1920   36.9760   29.6280 C   0  0  0  0  0  0  0  0  0  0  0  0
   37.2050   38.9200   26.6530 O   0  0  0  0  0  0  0  0  0  0  0  0
   38.1390   39.5430   27.0710 C   0  0  0  0  0  0  0  0  0  0  0  0
  1  5  1  0
  2  1  1  0
  3  7  1  0
  3  2  1  0
  3  1  1  0
  4  7  2  0
  6  7  1  0
M  END
$$$$

     RDKit          3D

  4  3  0  0  0  0  0  0  0  0999 V2000
   40.8190   38.7390   29.6470 O   0  0  0  0  0  0  0  0  0  0  0  0
   39.6160   36.9960   30.2880 O   0  0  0  0  0  0  0  0  0  0  0  0
   39.7490   38.0910   29.6630 C   0  0  0  0  0  0  0  0  0  0  0  0
   38.5820   38.6110   28.8890 C   0  0  0  0  0  0  0  0  0  0  0  0
  1  3  2  0
  3  2  1  0
  4  3  1  0
M  END
$$$$

     RDKit          3D

 11 10  0  0  0  0  0  0  0  0999 V2000
   39.1540   38.6720   29.3800 C   0  0  0  0  0  0  0  0  0  0  0  0
   39.7630   43.5380   27.7670 S   0  0  0  0  0  0  0  0  0  0  0  0
   40.3520   41.6360   28.3000 P   0  0  0  0  0  0  0  0  0  0  0  0
   41.0780   41.8390   29.8450 C   0  0  0  0  0  0  0  0  0  0  0  0
   38.4340   39.3560   28.2400 C   0  0  0  0  0  0  0  0  0  0  0  0
   41.2490   41.0040   27.1700 O   0  0  0  0  0  0  0  0  0  0  0  0
   40.0610   39.3660   30.1650 N   0  0  0  0  0  0  0  0  0  0  0  0
   38.8180   37.2120   29.7270 C   0  0  0  0  0  0  0  0  0  0  0  0
   38.8460   40.7510   28.2060 O   0  0  0  0  0  0  0  0  0  0  0  0
   38.4070   38.9140   26.8560 N   0  0  0  0  0  0  0  0  0  0  0  0
   42.6000   42.0690   29.7020 C   0  0  0  0  0  0  0  0  0  0  0  0
  1  8  1  0
  1  7  1  0
  2  3  1  0
  3  6  2  0
  3  4  1  0
  5 10  1  0
  5  1  1  0
  9  5  1  0
  9  3  1  0
 11  4  1  0
M  END
$$$$

     RDKit          3D

 17 16  0  0  0  0  0  0  0  0999 V2000
   36.8900   39.9610   22.8640 C   0  0  0  0  0  0  0  0  0  0  0  0
   37.9420   38.5410   25.5150 O   0  0  0  0  0  0  0  0  0  0  0  0
   36.9480   40.3020   21.6690 O   0  0  0  0  0  0  0  0  0  0  0  0
   38.5960   39.7810   28.7910 N   0  0  0  0  0  0  0  0  0  0  0  0
   37.2480   40.7610   23.9160 N   0  0  0  0  0  0  0  0  0  0  0  0
   38.7560   40.4600   27.4200 C   0  0  0  0  0  0  0  0  0  0  0  0
   38.1750   37.7580   27.8520 N   0  0  0  0  0  0  0  0  0  0  0  0
   36.2650   38.7340   23.1240 N   0  0  0  0  0  0  0  0  0  0  0  0
   37.2250   42.3510   25.6940 C   0  0  0  0  0  0  0  0  0  0  0  0
   40.1360   42.7270   27.9260 N   0  0  0  0  0  0  0  0  0  0  0  0
   40.2420   40.5080   27.0130 C   0  0  0  0  0  0  0  0  0  0  0  0
   40.8590   41.4560   28.0440 C   0  0  0  0  0  0  0  0  0  0  0  0
   36.6650   43.2460   24.6290 C   0  0  0  0  0  0  0  0  0  0  0  0
   38.6380   38.3070   28.8460 C   0  0  0  0  0  0  0  0  0  0  0  0
   37.9120   41.0340   25.1440 C   0  0  0  0  0  0  0  0  0  0  0  0
   37.8970   39.8760   26.1640 C   0  0  0  0  0  0  0  0  0  0  0  0
   39.0800   37.6020   30.0740 C   0  0  0  0  0  0  0  0  0  0  0  0
  1  8  1  0
  1  5  1  0
  3  1  2  0
  4 14  1  0
  5 15  1  0
  6 11  1  0
  6  4  1  0
  7 14  2  0
 10 12  1  0
 11 12  1  0
 13  9  1  0
 14 17  1  0
 15  9  1  0
 15 16  1  0
 16  2  1  0
 16  6  1  0
M  END
$$$$

     RDKit          3D

 10  9  0  0  0  0  0  0  0  0999 V2000
   39.5550   40.7790   24.9400 C   0  0  0  0  0  0  0  0  0  0  0  0
   40.5400   42.0010   28.4790 O   0  0  0  0  0  0  0  0  0  0  0  0
   38.0390   38.1470   27.8630 O   0  0  0  0  0  0  0  0  0  0  0  0
   41.1480   39.8130   27.1800 O   0  0  0  0  0  0  0  0  0  0  0  0
   39.5960   37.2110   29.9360 C   0  0  0  0  0  0  0  0  0  0  0  0
   39.7020   41.7930   26.0140 N   0  0  0  0  0  0  0  0  0  0  0  0
   40.1960   41.0000   27.4590 P   0  0  0  0  0  0  0  0  0  0  0  0
   38.6690   38.9380   28.3780 C   0  0  0  0  0  0  0  0  0  0  0  0
   38.5850   40.4510   28.0210 C   0  0  0  0  0  0  0  0  0  0  0  0
   39.8360   38.5690   29.3300 C   0  0  0  0  0  0  0  0  0  0  0  0
  1  6  1  0
  3  8  2  0
  6  7  1  0
  7  4  2  0
  7  9  1  0
  7  2  1  0
  8 10  1  0
  9  8  1  0
 10  5  1  0
M  END
$$$$

     RDKit          3D

 24 24  0  0  0  0  0  0  0  0999 V2000
   41.6110   40.5430   28.9930 C   0  0  0  0  0  0  0  0  0  0  0  0
   33.3080   39.9180   24.1090 O   0  0  0  0  0  0  0  0  0  0  0  0
   39.5440   37.6770   30.0120 C   0  0  0  0  0  0  0  0  0  0  0  0
   40.1260   38.5900   29.0180 N   0  0  0  0  0  0  0  0  0  0  0  0
   34.2450   39.1520   24.0540 C   0  0  0  0  0  0  0  0  0  0  0  0
   39.3900   42.1340   27.2960 C   0  0  0  0  0  0  0  0  0  0  0  0
   37.4690   39.9280   26.8780 C   0  0  0  0  0  0  0  0  0  0  0  0
   32.9090   39.0090   21.2930 C   0  0  0  0  0  0  0  0  0  0  0  0
   32.9740   36.6360   21.3980 C   0  0  0  0  0  0  0  0  0  0  0  0
   40.4120   41.7730   26.2160 C   0  0  0  0  0  0  0  0  0  0  0  0
   41.6880   42.1800   26.8070 C   0  0  0  0  0  0  0  0  0  0  0  0
   39.4140   41.2160   28.2710 N   0  0  0  0  0  0  0  0  0  0  0  0
   36.5050   38.6660   25.1450 C   0  0  0  0  0  0  0  0  0  0  0  0
   40.5000   39.7580   29.3680 C   0  0  0  0  0  0  0  0  0  0  0  0
   34.2060   38.0530   23.1530 N   0  0  0  0  0  0  0  0  0  0  0  0
   42.1890   41.1670   27.7840 C   0  0  0  0  0  0  0  0  0  0  0  0
   34.8260   41.8470   25.1720 F   0  0  0  0  0  0  0  0  0  0  0  0
   35.6230   40.8160   25.5280 C   0  0  0  0  0  0  0  0  0  0  0  0
   37.3580   38.7450   26.1540 N   0  0  0  0  0  0  0  0  0  0  0  0
   42.6950   42.4640   25.7420 N   0  0  0  0  0  0  0  0  0  0  0  0
   35.5190   39.5600   24.8660 C   0  0  0  0  0  0  0  0  0  0  0  0
   38.5260   40.0940   27.9820 C   0  0  0  0  0  0  0  0  0  0  0  0
   36.6140   40.9780   26.5390 C   0  0  0  0  0  0  0  0  0  0  0  0
   33.0320   37.8590   22.2770 C   0  0  0  0  0  0  0  0  0  0  0  0
  1 14  1  0
  4 14  1  0
  4  3  1  0
  5  2  2  0
  5 21  1  0
  6 12  1  0
  7 22  1  0
  8 24  1  0
  9 24  1  0
 10 11  1  0
 10  6  1  0
 11 20  1  0
 11 16  1  0
 13 19  1  0
 15  5  1  0
 16  1  1  0
 17 18  1  0
 18 23  2  0
 19  7  2  0
 21 13  2  0
 21 18  1  0
 22 12  1  0
 23  7  1  0
 24 15  1  0
M  END
$$$$

     RDKit          3D

 11 11  0  0  0  0  0  0  0  0999 V2000
   36.9000   38.6780   24.3750 C   0  0  0  0  0  0  0  0  0  0  0  0
   38.3290   39.5190   24.7920 C   0  0  0  0  0  0  0  0  0  0  0  0
   39.3870   38.7000   28.7240 N   0  0  0  0  0  0  0  0  0  0  0  0
   38.2760   39.8580   26.1640 C   0  0  0  0  0  0  0  0  0  0  0  0
   35.9190   40.2280   26.3750 O   0  0  0  0  0  0  0  0  0  0  0  0
   39.4030   40.6750   22.9700 C   0  0  0  0  0  0  0  0  0  0  0  0
   37.1460   40.8320   26.4520 C   0  0  0  0  0  0  0  0  0  0  0  0
   38.4060   40.6790   24.0640 O   0  0  0  0  0  0  0  0  0  0  0  0
   39.4490   40.0010   28.3480 C   0  0  0  0  0  0  0  0  0  0  0  0
   38.2100   40.5900   27.5040 C   0  0  0  0  0  0  0  0  0  0  0  0
   39.8260   37.7020   29.7140 C   0  0  0  0  0  0  0  0  0  0  0  0
  2  1  1  0
  3 11  1  0
  4  2  1  0
  4  7  1  0
  4 10  1  0
  6  8  1  0
  7  5  1  0
  7 10  1  0
  8  2  1  0
  9  3  1  0
 10  9  1  0
M  END
$$$$

     RDKit          3D

  8  7  0  0  0  0  0  0  0  0999 V2000
   40.1660   39.8720   28.9150 C   0  0  0  0  0  0  0  0  0  0  0  0
   39.7700   42.2140   28.8770 O   0  0  0  0  0  0  0  0  0  0  0  0
   38.7080   37.9700   29.3450 C   0  0  0  0  0  0  0  0  0  0  0  0
   41.3520   40.0000   29.6630 N   0  0  0  0  0  0  0  0  0  0  0  0
   39.6380   37.3370   30.3610 C   0  0  0  0  0  0  0  0  0  0  0  0
   39.6520   38.6700   28.4160 C   0  0  0  0  0  0  0  0  0  0  0  0
   38.1550   40.9140   28.0880 O   0  0  0  0  0  0  0  0  0  0  0  0
   39.3840   41.1050   28.6570 C   0  0  0  0  0  0  0  0  0  0  0  0
  1  4  1  0
  3  5  1  0
  6  1  1  0
  6  3  1  0
  7  8  2  0
  8  2  1  0
  8  1  1  0
M  END
$$$$

     RDKit          3D

 11 11  0  0  0  0  0  0  0  0999 V2000
   42.3680   40.1340   29.1410 C   0  0  0  0  0  0  0  0  0  0  0  0
   38.0680   41.1050   26.5240 N   0  0  0  0  0  0  0  0  0  0  0  0
   37.5090   39.9720   27.1030 C   0  0  0  0  0  0  0  0  0  0  0  0
   40.1820   40.6160   27.8300 C   0  0  0  0  0  0  0  0  0  0  0  0
   38.1870   39.1990   27.9890 N   0  0  0  0  0  0  0  0  0  0  0  0
   40.0870   38.6320   29.2830 N   0  0  0  0  0  0  0  0  0  0  0  0
   39.9780   42.6600   26.3710 N   0  0  0  0  0  0  0  0  0  0  0  0
   39.4270   41.5270   26.8930 C   0  0  0  0  0  0  0  0  0  0  0  0
   39.3600   37.5290   29.9820 C   0  0  0  0  0  0  0  0  0  0  0  0
   39.4630   39.4320   28.3950 C   0  0  0  0  0  0  0  0  0  0  0  0
   41.5200   40.7890   28.1670 N   0  0  0  0  0  0  0  0  0  0  0  0
  2  8  1  0
  2  3  2  0
  3  5  1  0
  4 11  1  0
  4 10  1  0
  5 10  2  0
  6  9  1  0
  7  8  1  0
  8  4  2  0
 10  6  1  0
 11  1  1  0
M  END
$$$$

     RDKit          3D

 24 27  0  0  0  0  0  0  0  0999 V2000
   40.4500   42.9490   29.1850 C   0  0  0  0  0  0  0  0  0  0  0  0
   40.7070   41.6770   31.0820 N   0  0  0  0  0  0  0  0  0  0  0  0
   32.3550   39.2640   24.7610 C   0  0  0  0  0  0  0  0  0  0  0  0
   35.9120   39.5820   25.1030 C   0  0  0  0  0  0  0  0  0  0  0  0
   39.1280   40.0860   27.1500 C   0  0  0  0  0  0  0  0  0  0  0  0
   34.7820   40.0000   24.7750 C   0  0  0  0  0  0  0  0  0  0  0  0
   38.4070   39.6670   28.3920 C   0  0  0  0  0  0  0  0  0  0  0  0
   37.5690   38.9780   25.6790 C   0  0  0  0  0  0  0  0  0  0  0  0
   33.4660   41.6690   24.4240 C   0  0  0  0  0  0  0  0  0  0  0  0
   33.7730   39.0780   24.1730 C   0  0  0  0  0  0  0  0  0  0  0  0
   38.0120   40.0440   26.0760 N   0  0  0  0  0  0  0  0  0  0  0  0
   35.6360   42.4100   24.7970 C   0  0  0  0  0  0  0  0  0  0  0  0
   34.6050   41.3290   24.6600 C   0  0  0  0  0  0  0  0  0  0  0  0
   37.4690   37.9640   25.2660 O   0  0  0  0  0  0  0  0  0  0  0  0
   37.0180   41.8100   25.1750 C   0  0  0  0  0  0  0  0  0  0  0  0
   40.0840   39.0860   30.3110 N   0  0  0  0  0  0  0  0  0  0  0  0
   32.4980   40.7510   25.6180 S   0  0  0  0  0  0  0  0  0  0  0  0
   38.0990   42.4410   25.2100 O   0  0  0  0  0  0  0  0  0  0  0  0
   36.9640   40.4450   25.4380 C   0  0  0  0  0  0  0  0  0  0  0  0
   38.3680   38.1960   28.8370 C   0  0  0  0  0  0  0  0  0  0  0  0
   39.5240   37.8370   29.7230 C   0  0  0  0  0  0  0  0  0  0  0  0
   41.0190   39.8810   29.5070 C   0  0  0  0  0  0  0  0  0  0  0  0
   40.7130   41.4590   29.6600 C   0  0  0  0  0  0  0  0  0  0  0  0
   41.0830   43.9610   29.8950 O   0  0  0  0  0  0  0  0  0  0  0  0
  1 23  1  0
  1 24  1  0
  3 17  1  0
  4 19  1  0
  4  8  1  0
  5  7  1  0
  6  4  1  0
  7 20  1  0
  8 11  1  0
  9 13  1  0
  9 17  1  0
 10  3  1  0
 10  6  1  0
 11  5  1  0
 12 15  1  0
 13  6  1  0
 13 12  2  0
 14  8  1  0
 15 18  2  0
 15 19  1  0
 19  8  1  0
 19 11  1  0
 20 21  1  0
 21 16  1  0
 22 23  1  0
 22 16  1  0
 23  2  1  0
M  END
$$$$

     RDKit          3D

 18 17  0  0  0  0  0  0  0  0999 V2000
   42.2190   41.3010   30.6160 N   0  0  0  0  0  0  0  0  0  0  0  0
   39.4420   39.2480   28.6670 C   0  0  0  0  0  0  0  0  0  0  0  0
   36.4090   40.6840   23.6380 N   0  0  0  0  0  0  0  0  0  0  0  0
   37.6990   38.4070   26.0310 O   0  0  0  0  0  0  0  0  0  0  0  0
   42.3160   40.2710   28.0990 O   0  0  0  0  0  0  0  0  0  0  0  0
   35.3970   42.3040   24.9730 C   0  0  0  0  0  0  0  0  0  0  0  0
   38.3380   40.8020   26.6880 C   0  0  0  0  0  0  0  0  0  0  0  0
   41.0230   40.6070   29.8460 C   0  0  0  0  0  0  0  0  0  0  0  0
   34.5400   43.0510   22.9080 O   0  0  0  0  0  0  0  0  0  0  0  0
   38.2350   39.0930   27.3230 S   0  0  0  0  0  0  0  0  0  0  0  0
   36.5920   41.2000   24.8480 C   0  0  0  0  0  0  0  0  0  0  0  0
   41.7840   39.5680   29.1700 C   0  0  0  0  0  0  0  0  0  0  0  0
   33.3550   41.3670   23.9560 O   0  0  0  0  0  0  0  0  0  0  0  0
   39.6890   38.3700   29.8870 C   0  0  0  0  0  0  0  0  0  0  0  0
   39.2240   37.0150   29.5100 O   0  0  0  0  0  0  0  0  0  0  0  0
   34.3110   42.0890   23.8240 C   0  0  0  0  0  0  0  0  0  0  0  0
   37.1640   40.7660   25.9150 N   0  0  0  0  0  0  0  0  0  0  0  0
   39.7220   40.6530   28.9160 N   0  0  0  0  0  0  0  0  0  0  0  0
  2 18  1  0
  2 14  1  0
  3 11  2  0
  5 12  1  0
  7 10  1  0
  8  1  2  0
  9 16  2  0
 10  4  2  0
 10  2  1  0
 11  6  1  0
 11 17  1  0
 12  8  1  0
 15 14  1  0
 16 13  1  0
 16  6  1  0
 17  7  1  0
 18  8  1  0
M  END
$$$$
