
     RDKit          3D

 11 10  0  0  0  0  0  0  0  0999 V2000
   39.9440   36.9630   30.1760 F   0  0  0  0  0  0  0  0  0  0  0  0
   43.5690   37.2150   30.2120 C   0  0  0  0  0  0  0  0  0  0  0  0
   43.1570   35.2590   31.0290 O   0  0  0  0  0  0  0  0  0  0  0  0
   39.8380   36.9770   28.2080 F   0  0  0  0  0  0  0  0  0  0  0  0
   44.1830   35.9860   30.8740 C   0  0  0  0  0  0  0  0  0  0  0  0
   43.1620   36.8460   28.8410 N   0  0  0  0  0  0  0  0  0  0  0  0
   40.9990   38.3640   29.3790 F   0  0  0  0  0  0  0  0  0  0  0  0
   40.6750   37.0750   29.1700 C   0  0  0  0  0  0  0  0  0  0  0  0
   43.9020   35.6590   28.6000 O   0  0  0  0  0  0  0  0  0  0  0  0
   43.9410   37.7260   28.0360 O   0  0  0  0  0  0  0  0  0  0  0  0
   41.8710   36.3430   28.6330 C   0  0  0  0  0  0  0  0  0  0  0  0
  2  5  1  0
  4  8  1  0
  5  3  1  0
  6  2  1  0
  8  7  1  0
  8  1  1  0
  9  6  1  0
 10  6  1  0
 11  6  1  0
 11  8  1  0
M  END
$$$$

     RDKit          3D

 14 15  0  0  0  0  0  0  0  0999 V2000
   41.7690   37.1580   28.7580 C   0  0  0  0  0  0  0  0  0  0  0  0
   42.4750   36.2220   27.7880 C   0  0  0  0  0  0  0  0  0  0  0  0
   40.5830   36.7730   29.7360 C   0  0  0  0  0  0  0  0  0  0  0  0
   43.7860   38.1360   26.8350 C   0  0  0  0  0  0  0  0  0  0  0  0
   44.4980   35.7410   26.3090 C   0  0  0  0  0  0  0  0  0  0  0  0
   42.2440   38.6460   28.8820 C   0  0  0  0  0  0  0  0  0  0  0  0
   43.3490   36.7060   26.5040 C   0  0  0  0  0  0  0  0  0  0  0  0
   41.6560   34.6060   30.3030 C   0  0  0  0  0  0  0  0  0  0  0  0
   40.4140   37.6430   30.8780 O   0  0  0  0  0  0  0  0  0  0  0  0
   40.4870   35.2520   29.7540 N   0  0  0  0  0  0  0  0  0  0  0  0
   45.7360   36.5780   26.0390 C   0  0  0  0  0  0  0  0  0  0  0  0
   42.9940   39.1040   27.5810 C   0  0  0  0  0  0  0  0  0  0  0  0
   40.3730   34.5070   30.9880 C   0  0  0  0  0  0  0  0  0  0  0  0
   42.2170   39.2840   29.9560 O   0  0  0  0  0  0  0  0  0  0  0  0
  1  6  1  0
  1  3  1  0
  2  1  1  0
  3 10  1  0
  3  9  2  0
  4 12  1  0
  6 14  2  0
  7  5  1  0
  7  4  1  0
  7  2  1  0
  8 13  1  0
 10  8  1  0
 10 13  1  0
 11  5  1  0
 12  6  1  0
M  END
$$$$

     RDKit          3D

 15 15  0  0  0  0  0  0  0  0999 V2000
   40.3740   35.4970   29.5600 S   0  0  0  0  0  0  0  0  0  0  0  0
   40.9780   36.1550   26.5570 C   0  0  0  0  0  0  0  0  0  0  0  0
   41.3170   37.9660   29.3630 O   0  0  0  0  0  0  0  0  0  0  0  0
   39.9410   37.3240   24.6260 O   0  0  0  0  0  0  0  0  0  0  0  0
   44.1100   38.2090   28.2190 O   0  0  0  0  0  0  0  0  0  0  0  0
   40.0940   39.9480   25.4970 C   0  0  0  0  0  0  0  0  0  0  0  0
   41.1320   38.8160   25.9960 C   0  0  0  0  0  0  0  0  0  0  0  0
   42.4780   34.1250   30.8180 N   0  0  0  0  0  0  0  0  0  0  0  0
   40.6990   37.4500   25.6450 C   0  0  0  0  0  0  0  0  0  0  0  0
   40.8760   34.2030   30.8140 C   0  0  0  0  0  0  0  0  0  0  0  0
   41.4900   36.8470   29.2090 C   0  0  0  0  0  0  0  0  0  0  0  0
   40.0510   35.0270   26.2530 O   0  0  0  0  0  0  0  0  0  0  0  0
   42.1810   39.0080   26.6930 C   0  0  0  0  0  0  0  0  0  0  0  0
   42.1060   36.4910   27.7080 C   0  0  0  0  0  0  0  0  0  0  0  0
   43.0160   37.7570   27.3740 C   0  0  0  0  0  0  0  0  0  0  0  0
  1 10  1  0
  2 12  1  0
  2 14  1  0
  4  9  2  0
  6  7  1  0
  7 13  2  0
  9  7  1  0
  9  2  1  0
 10  8  1  0
 11  3  2  0
 11  1  1  0
 13 15  1  0
 14 11  1  0
 15 14  1  0
 15  5  1  0
M  END
$$$$

     RDKit          3D

 13 14  0  0  0  0  0  0  0  0999 V2000
   40.0950   37.0490   25.3020 C   0  0  0  0  0  0  0  0  0  0  0  0
   38.2230   35.7950   30.0810 O   0  0  0  0  0  0  0  0  0  0  0  0
   39.6560   37.2790   30.7500 O   0  0  0  0  0  0  0  0  0  0  0  0
   40.7570   35.1860   27.7020 N   0  0  0  0  0  0  0  0  0  0  0  0
   39.1840   36.0220   25.9550 C   0  0  0  0  0  0  0  0  0  0  0  0
   41.7700   35.2520   30.6970 O   0  0  0  0  0  0  0  0  0  0  0  0
   42.5730   34.2850   31.0130 C   0  0  0  0  0  0  0  0  0  0  0  0
   38.7590   36.0090   28.8450 C   0  0  0  0  0  0  0  0  0  0  0  0
   40.3980   34.8500   30.1930 C   0  0  0  0  0  0  0  0  0  0  0  0
   39.5170   36.0470   27.4670 C   0  0  0  0  0  0  0  0  0  0  0  0
   40.4600   34.2160   28.7970 C   0  0  0  0  0  0  0  0  0  0  0  0
   39.4990   34.7280   25.5220 O   0  0  0  0  0  0  0  0  0  0  0  0
   39.8520   36.2090   29.8640 C   0  0  0  0  0  0  0  0  0  0  0  0
  4 11  1  0
  5  1  1  0
  6  7  1  0
  8 13  1  0
  8  2  1  0
  9  6  1  0
 10  5  1  0
 10  4  1  0
 10  8  1  0
 11  9  1  0
 12  5  1  0
 13  2  1  0
 13  9  1  0
 13  3  1  0
M  END
$$$$

     RDKit          3D

 18 19  0  0  0  0  0  0  0  0999 V2000
   40.5900   39.0350   22.7790 C   0  0  0  0  0  0  0  0  0  0  0  0
   40.5030   36.6880   27.3930 N   0  0  0  0  0  0  0  0  0  0  0  0
   41.1060   34.6580   30.3690 C   0  0  0  0  0  0  0  0  0  0  0  0
   40.1210   36.5900   25.8930 C   0  0  0  0  0  0  0  0  0  0  0  0
   42.1700   39.0240   22.4480 O   0  0  0  0  0  0  0  0  0  0  0  0
   40.2420   37.9550   23.6490 C   0  0  0  0  0  0  0  0  0  0  0  0
   40.3690   37.5850   30.6220 O   0  0  0  0  0  0  0  0  0  0  0  0
   41.1640   39.0950   25.7900 C   0  0  0  0  0  0  0  0  0  0  0  0
   42.4370   34.3340   29.8230 O   0  0  0  0  0  0  0  0  0  0  0  0
   39.9010   35.1370   25.4750 C   0  0  0  0  0  0  0  0  0  0  0  0
   40.4790   40.5090   23.4120 C   0  0  0  0  0  0  0  0  0  0  0  0
   41.8790   36.6020   27.7700 C   0  0  0  0  0  0  0  0  0  0  0  0
   43.1360   35.5110   30.2380 C   0  0  0  0  0  0  0  0  0  0  0  0
   40.0900   38.0900   25.2140 C   0  0  0  0  0  0  0  0  0  0  0  0
   40.8550   40.5960   24.8860 C   0  0  0  0  0  0  0  0  0  0  0  0
   42.2680   37.9740   29.4620 N   0  0  0  0  0  0  0  0  0  0  0  0
   40.9280   36.2960   30.2220 C   0  0  0  0  0  0  0  0  0  0  0  0
   42.1690   36.5800   29.3400 C   0  0  0  0  0  0  0  0  0  0  0  0
  1  5  1  0
  1 11  1  0
  1  6  1  0
  2 12  2  3
  4 10  1  0
  4  2  1  0
  6 14  1  0
  9 13  1  0
  9  3  1  0
 11 15  1  0
 12 18  1  0
 14  8  1  0
 14  4  1  0
 15  8  1  0
 17  3  1  0
 17  7  1  0
 18 16  1  0
 18 17  1  0
 18 13  1  0
M  END
$$$$

     RDKit          3D

  9  9  0  0  0  0  0  0  0  0999 V2000
   43.5390   36.3100   30.0510 C   0  0  0  0  0  0  0  0  0  0  0  0
   40.9670   35.0770   30.4320 Br  0  0  0  0  0  0  0  0  0  0  0  0
   42.1350   36.6900   29.5830 C   0  0  0  0  0  0  0  0  0  0  0  0
   44.6900   36.9600   29.2540 C   0  0  0  0  0  0  0  0  0  0  0  0
   40.6680   36.1390   27.1980 S   0  0  0  0  0  0  0  0  0  0  0  0
   42.0500   36.6920   28.0780 C   0  0  0  0  0  0  0  0  0  0  0  0
   44.0800   38.0310   28.3370 N   0  0  0  0  0  0  0  0  0  0  0  0
   41.6210   37.9390   30.0820 N   0  0  0  0  0  0  0  0  0  0  0  0
   43.0710   37.4810   27.3410 C   0  0  0  0  0  0  0  0  0  0  0  0
  3  1  1  0
  3  8  1  0
  3  2  1  0
  4  1  1  0
  6  5  1  0
  6  3  1  0
  7  4  1  0
  9  6  1  0
  9  7  1  0
M  END
$$$$

     RDKit          3D

 12 11  0  0  0  0  0  0  0  0999 V2000
   41.8560   36.5210   27.6260 C   0  0  0  0  0  0  0  0  0  0  0  0
   44.3400   37.2400   29.5630 O   0  0  0  0  0  0  0  0  0  0  0  0
   41.0830   35.6440   26.5690 N   0  0  0  0  0  0  0  0  0  0  0  0
   42.2930   37.9070   25.6970 N   0  0  0  0  0  0  0  0  0  0  0  0
   41.6270   37.9100   27.0140 C   0  0  0  0  0  0  0  0  0  0  0  0
   41.6040   36.6080   30.1840 N   0  0  0  0  0  0  0  0  0  0  0  0
   41.0880   38.7440   27.8100 O   0  0  0  0  0  0  0  0  0  0  0  0
   41.8910   35.2610   30.5360 C   0  0  0  0  0  0  0  0  0  0  0  0
   40.6870   34.3350   30.5470 C   0  0  0  0  0  0  0  0  0  0  0  0
   43.9690   36.3160   30.0780 C   0  0  0  0  0  0  0  0  0  0  0  0
   43.3440   35.0520   30.6540 C   0  0  0  0  0  0  0  0  0  0  0  0
   41.0070   36.7600   28.8930 C   0  0  0  0  0  0  0  0  0  0  0  0
  1  3  1  0
  1 12  1  0
  2 10  1  0
  4  5  1  0
  5  1  1  0
  5  7  2  0
  6  8  1  0
  8  9  1  0
  8 11  1  0
 10 11  1  0
 12  6  1  0
M  END
$$$$

     RDKit          3D

 14 14  0  0  0  0  0  0  0  0999 V2000
   40.2280   36.0370   29.4000 O   0  0  0  0  0  0  0  0  0  0  0  0
   42.3080   37.5150   25.3910 O   0  0  0  0  0  0  0  0  0  0  0  0
   40.3150   35.9750   25.7550 O   0  0  0  0  0  0  0  0  0  0  0  0
   40.6740   36.7640   28.1100 C   0  0  0  0  0  0  0  0  0  0  0  0
   42.1580   37.0250   28.2440 C   0  0  0  0  0  0  0  0  0  0  0  0
   42.4980   35.3420   29.9860 C   0  0  0  0  0  0  0  0  0  0  0  0
   42.4970   36.8450   29.6800 C   0  0  0  0  0  0  0  0  0  0  0  0
   43.7930   37.3940   29.8660 O   0  0  0  0  0  0  0  0  0  0  0  0
   39.8150   38.1880   24.6840 O   0  0  0  0  0  0  0  0  0  0  0  0
   42.8360   35.0820   31.3670 N   0  0  0  0  0  0  0  0  0  0  0  0
   41.0710   34.8810   29.7010 C   0  0  0  0  0  0  0  0  0  0  0  0
   40.5530   34.1230   30.9080 C   0  0  0  0  0  0  0  0  0  0  0  0
   40.5410   37.9290   27.1840 O   0  0  0  0  0  0  0  0  0  0  0  0
   40.6940   37.2820   25.6090 P   0  0  0  0  0  0  0  0  0  0  0  0
  1 11  1  0
  2 14  1  0
  4 13  1  0
  4  5  1  0
  4  1  1  0
  5  7  1  0
  6 10  1  0
  7  8  1  0
  7  6  1  0
  9 14  2  0
 11  6  1  0
 11 12  1  0
 14  3  1  0
 14 13  1  0
M  END
$$$$

     RDKit          3D

 23 22  0  0  0  0  0  0  0  0999 V2000
   39.2180   35.7510   27.4840 C   0  0  0  0  0  0  0  0  0  0  0  0
   35.9220   36.2640   27.5850 C   0  0  0  0  0  0  0  0  0  0  0  0
   43.5070   36.4930   27.7370 C   0  0  0  0  0  0  0  0  0  0  0  0
   38.3240   34.9790   26.9410 C   0  0  0  0  0  0  0  0  0  0  0  0
   42.0730   38.0970   29.7930 C   0  0  0  0  0  0  0  0  0  0  0  0
   43.2360   35.8130   30.9880 O   0  0  0  0  0  0  0  0  0  0  0  0
   42.1290   36.3850   28.0940 O   0  0  0  0  0  0  0  0  0  0  0  0
   35.1570   35.9720   29.6600 C   0  0  0  0  0  0  0  0  0  0  0  0
   38.8050   36.4370   29.8800 C   0  0  0  0  0  0  0  0  0  0  0  0
   34.9430   35.7350   28.2870 C   0  0  0  0  0  0  0  0  0  0  0  0
   33.5830   35.4440   28.2030 C   0  0  0  0  0  0  0  0  0  0  0  0
   37.7610   36.8720   29.5940 O   0  0  0  0  0  0  0  0  0  0  0  0
   39.0550   37.1550   27.0870 C   0  0  0  0  0  0  0  0  0  0  0  0
   40.3300   34.3670   29.4820 C   0  0  0  0  0  0  0  0  0  0  0  0
   39.2860   36.6790   30.8880 O   0  0  0  0  0  0  0  0  0  0  0  0
   42.0190   36.6710   29.4350 C   0  0  0  0  0  0  0  0  0  0  0  0
   36.8630   35.2590   26.8620 C   0  0  0  0  0  0  0  0  0  0  0  0
   33.0660   34.3580   27.9240 O   0  0  0  0  0  0  0  0  0  0  0  0
   41.3820   34.5740   30.4160 C   0  0  0  0  0  0  0  0  0  0  0  0
   38.0650   37.8370   27.3070 O   0  0  0  0  0  0  0  0  0  0  0  0
   40.1690   37.7660   26.6190 O   0  0  0  0  0  0  0  0  0  0  0  0
   42.2120   35.6620   30.3100 C   0  0  0  0  0  0  0  0  0  0  0  0
   39.5330   35.4950   28.9670 C   0  0  0  0  0  0  0  0  0  0  0  0
  1  4  1  0
  1 23  1  0
  2 10  1  0
  3  7  1  0
  7 16  1  0
  9 15  1  0
 10  8  1  0
 11 10  1  0
 12  9  2  0
 13 20  1  0
 13  1  1  0
 14 19  1  0
 16  5  1  0
 16 22  1  0
 17  4  1  0
 17  2  1  0
 18 11  2  0
 21 13  2  0
 22 19  1  0
 22  6  2  0
 23 14  1  0
 23  9  1  0
M  END
$$$$

     RDKit          3D

 14 13  0  0  0  0  0  0  0  0999 V2000
   41.1080   36.9630   30.0860 N   0  0  0  0  0  0  0  0  0  0  0  0
   39.0020   36.3080   23.9010 C   0  0  0  0  0  0  0  0  0  0  0  0
   39.6670   37.4560   26.1540 C   0  0  0  0  0  0  0  0  0  0  0  0
   41.2750   36.3750   27.6580 C   0  0  0  0  0  0  0  0  0  0  0  0
   41.3460   35.9220   29.0490 C   0  0  0  0  0  0  0  0  0  0  0  0
   38.4410   36.4800   22.7870 O   0  0  0  0  0  0  0  0  0  0  0  0
   42.3770   34.3920   30.8530 N   0  0  0  0  0  0  0  0  0  0  0  0
   40.9560   34.0870   30.6910 C   0  0  0  0  0  0  0  0  0  0  0  0
   39.2320   38.7530   24.2360 C   0  0  0  0  0  0  0  0  0  0  0  0
   40.5060   34.7890   29.4140 C   0  0  0  0  0  0  0  0  0  0  0  0
   38.8770   37.4380   24.9320 C   0  0  0  0  0  0  0  0  0  0  0  0
   39.4910   35.2080   24.3620 O   0  0  0  0  0  0  0  0  0  0  0  0
   40.0030   36.1620   26.9040 C   0  0  0  0  0  0  0  0  0  0  0  0
   40.0190   39.9030   24.8520 C   0  0  0  0  0  0  0  0  0  0  0  0
  2 12  1  0
  2 11  1  0
  3 13  1  0
  4  5  1  0
  5 10  1  0
  5  1  1  0
  6  2  2  0
  8  7  1  0
  9 14  1  0
 10  8  1  0
 11  9  1  0
 11  3  1  0
 13  4  1  0
M  END
$$$$

     RDKit          3D

 15 14  0  0  0  0  0  0  0  0999 V2000
   43.3590   38.5410   27.0440 O   0  0  0  0  0  0  0  0  0  0  0  0
   40.6080   36.2770   29.6010 C   0  0  0  0  0  0  0  0  0  0  0  0
   42.4120   35.0560   30.9750 N   0  0  0  0  0  0  0  0  0  0  0  0
   44.1960   36.5010   30.1170 C   0  0  0  0  0  0  0  0  0  0  0  0
   40.9630   37.3130   28.7820 C   0  0  0  0  0  0  0  0  0  0  0  0
   40.3730   34.2260   31.4150 O   0  0  0  0  0  0  0  0  0  0  0  0
   41.2820   34.3590   30.4240 C   0  0  0  0  0  0  0  0  0  0  0  0
   43.3230   35.9650   27.7430 O   0  0  0  0  0  0  0  0  0  0  0  0
   40.6670   36.1450   26.1290 O   0  0  0  0  0  0  0  0  0  0  0  0
   42.4880   39.0040   28.9410 O   0  0  0  0  0  0  0  0  0  0  0  0
   43.6670   35.0790   30.2410 C   0  0  0  0  0  0  0  0  0  0  0  0
   43.0100   38.2230   28.0820 C   0  0  0  0  0  0  0  0  0  0  0  0
   41.6970   36.7140   26.6560 C   0  0  0  0  0  0  0  0  0  0  0  0
   42.2510   36.9190   28.0240 C   0  0  0  0  0  0  0  0  0  0  0  0
   40.6720   34.7700   29.1960 C   0  0  0  0  0  0  0  0  0  0  0  0
  1 12  2  0
  4 11  1  0
  5  2  1  0
  7  3  1  0
  7  6  1  0
  9 13  1  0
 11  3  1  0
 12 10  1  0
 13 14  1  0
 14  8  1  0
 14 12  1  0
 14  5  1  0
 15  2  1  0
 15  7  1  0
M  END
$$$$

     RDKit          3D

 12 11  0  0  0  0  0  0  0  0999 V2000
   40.4090   35.7190   29.9450 C   0  0  0  0  0  0  0  0  0  0  0  0
   42.7110   35.6080   30.5990 O   0  0  0  0  0  0  0  0  0  0  0  0
   40.7420   38.3850   25.8670 O   0  0  0  0  0  0  0  0  0  0  0  0
   42.4510   38.0640   27.8570 O   0  0  0  0  0  0  0  0  0  0  0  0
   41.4680   37.0460   27.9500 C   0  0  0  0  0  0  0  0  0  0  0  0
   41.9760   35.6530   27.4640 C   0  0  0  0  0  0  0  0  0  0  0  0
   41.4100   33.8340   31.2330 N   0  0  0  0  0  0  0  0  0  0  0  0
   39.8590   35.8370   25.8260 S   0  0  0  0  0  0  0  0  0  0  0  0
   40.7820   37.1050   29.3420 C   0  0  0  0  0  0  0  0  0  0  0  0
   43.1900   35.7870   27.0800 O   0  0  0  0  0  0  0  0  0  0  0  0
   41.6230   35.0510   30.6140 C   0  0  0  0  0  0  0  0  0  0  0  0
   40.4910   37.2470   26.7320 C   0  0  0  0  0  0  0  0  0  0  0  0
  1 11  1  0
  2 11  2  0
  3 12  2  0
  5  4  1  0
  5  9  1  0
  6  5  1  0
  8 12  1  0
  9  1  1  0
 10  6  1  0
 11  7  1  0
 12  5  1  0
M  END
$$$$

     RDKit          3D

 13 13  0  0  0  0  0  0  0  0999 V2000
   40.0310   34.9670   26.6880 O   0  0  0  0  0  0  0  0  0  0  0  0
   41.4780   34.8530   29.6580 C   0  0  0  0  0  0  0  0  0  0  0  0
   40.7240   37.1650   29.1560 O   0  0  0  0  0  0  0  0  0  0  0  0
   41.0000   34.5630   31.0770 C   0  0  0  0  0  0  0  0  0  0  0  0
   40.8040   35.6120   27.4110 C   0  0  0  0  0  0  0  0  0  0  0  0
   42.3440   37.4520   27.4000 N   0  0  0  0  0  0  0  0  0  0  0  0
   44.0220   35.8240   28.5650 C   0  0  0  0  0  0  0  0  0  0  0  0
   42.1500   36.0980   26.9210 C   0  0  0  0  0  0  0  0  0  0  0  0
   40.7710   39.0260   27.8190 O   0  0  0  0  0  0  0  0  0  0  0  0
   42.9480   35.4530   29.6230 C   0  0  0  0  0  0  0  0  0  0  0  0
   41.1780   37.9440   28.0960 C   0  0  0  0  0  0  0  0  0  0  0  0
   40.5210   35.7560   28.8930 C   0  0  0  0  0  0  0  0  0  0  0  0
   43.7830   34.8650   30.7020 N   0  0  0  0  0  0  0  0  0  0  0  0
  1  5  2  0
  2  4  1  0
  5 12  1  0
  6 11  1  0
  8  6  1  0
  8  5  1  0
  9 11  2  0
 10  7  1  0
 10  2  1  0
 10 13  1  0
 11  3  1  0
 12  3  1  0
 12  2  1  0
M  END
$$$$

     RDKit          3D

 13 13  0  0  0  0  0  0  0  0999 V2000
   41.1840   37.5560   27.0930 C   0  0  0  0  0  0  0  0  0  0  0  0
   42.9800   35.2710   29.2360 N   0  0  0  0  0  0  0  0  0  0  0  0
   41.7610   37.5970   25.6740 C   0  0  0  0  0  0  0  0  0  0  0  0
   40.8670   37.0370   24.7040 O   0  0  0  0  0  0  0  0  0  0  0  0
   42.4340   34.5650   31.4390 N   0  0  0  0  0  0  0  0  0  0  0  0
   42.9080   36.7950   28.9220 C   0  0  0  0  0  0  0  0  0  0  0  0
   40.5160   36.1200   28.8590 C   0  0  0  0  0  0  0  0  0  0  0  0
   40.6270   35.6020   30.5620 S   0  0  0  0  0  0  0  0  0  0  0  0
   42.2540   38.0310   28.1190 C   0  0  0  0  0  0  0  0  0  0  0  0
   40.2630   35.3090   26.6740 O   0  0  0  0  0  0  0  0  0  0  0  0
   40.9170   36.1700   27.6650 C   0  0  0  0  0  0  0  0  0  0  0  0
   42.3010   35.1280   30.4370 C   0  0  0  0  0  0  0  0  0  0  0  0
   42.0760   38.9380   29.1580 O   0  0  0  0  0  0  0  0  0  0  0  0
  1  3  1  0
  1 11  1  0
  1  9  1  0
  2 12  1  0
  4  3  1  0
  6  2  1  0
  7  8  1  0
  9  6  1  0
  9 13  1  0
 11 10  1  0
 11  7  1  0
 12  8  1  0
 12  5  2  0
M  END
$$$$

     RDKit          3D

 18 21  0  0  0  0  0  0  0  0999 V2000
   40.8930   37.3520   26.5990 C   0  0  0  0  0  0  0  0  0  0  0  0
   42.9240   35.6090   30.7900 C   0  0  0  0  0  0  0  0  0  0  0  0
   43.0810   40.2100   28.0220 O   0  0  0  0  0  0  0  0  0  0  0  0
   41.4330   37.3820   29.5400 C   0  0  0  0  0  0  0  0  0  0  0  0
   42.0100   38.0940   26.9730 C   0  0  0  0  0  0  0  0  0  0  0  0
   40.0240   35.3480   25.9980 O   0  0  0  0  0  0  0  0  0  0  0  0
   40.4660   38.1360   30.3710 O   0  0  0  0  0  0  0  0  0  0  0  0
   40.6410   35.4070   27.8850 N   0  0  0  0  0  0  0  0  0  0  0  0
   42.4130   38.4860   29.4750 N   0  0  0  0  0  0  0  0  0  0  0  0
   42.4040   36.1150   29.4490 C   0  0  0  0  0  0  0  0  0  0  0  0
   40.9560   35.9860   29.1180 C   0  0  0  0  0  0  0  0  0  0  0  0
   40.5720   36.0550   26.8120 C   0  0  0  0  0  0  0  0  0  0  0  0
   41.2740   39.3280   27.5880 C   0  0  0  0  0  0  0  0  0  0  0  0
   40.9670   40.1770   26.1370 C   0  0  0  0  0  0  0  0  0  0  0  0
   42.6640   38.9280   28.0570 C   0  0  0  0  0  0  0  0  0  0  0  0
   42.5450   34.1690   30.8480 N   0  0  0  0  0  0  0  0  0  0  0  0
   40.1760   35.1380   30.1710 C   0  0  0  0  0  0  0  0  0  0  0  0
   41.0390   34.1080   30.9870 C   0  0  0  0  0  0  0  0  0  0  0  0
  1 12  1  0
  2 16  1  0
  4  7  1  0
  5  1  1  0
  5 13  1  0
  5 15  1  0
  6 12  2  0
  8 11  1  0
  9  4  1  0
 10  4  1  0
 10  2  1  0
 11 10  1  0
 11  4  1  0
 11 17  1  0
 12  8  1  0
 13 14  1  0
 13 15  1  0
 15  3  1  0
 15  9  1  0
 16 18  1  0
 17 18  2  0
M  END
$$$$

     RDKit          3D

  7  6  0  0  0  0  0  0  0  0999 V2000
   42.9250   36.4540   29.8270 C   0  0  0  0  0  0  0  0  0  0  0  0
   42.5450   37.9030   29.5980 N   0  0  0  0  0  0  0  0  0  0  0  0
   40.8030   33.5500   30.8630 C   0  0  0  0  0  0  0  0  0  0  0  0
   43.6120   38.7920   29.0950 C   0  0  0  0  0  0  0  0  0  0  0  0
   41.6950   35.6270   29.9710 C   0  0  0  0  0  0  0  0  0  0  0  0
   41.8880   34.3960   30.3730 N   0  0  0  0  0  0  0  0  0  0  0  0
   40.5990   36.1270   29.7440 O   0  0  0  0  0  0  0  0  0  0  0  0
  1  5  1  0
  2  1  1  0
  4  2  1  0
  5  6  1  0
  6  3  1  0
  7  5  2  0
M  END
$$$$

     RDKit          3D

 11 10  0  0  0  0  0  0  0  0999 V2000
   44.6820   37.5900   28.1470 N   0  0  0  0  0  0  0  0  0  0  0  0
   43.2720   38.1150   29.9400 O   0  0  0  0  0  0  0  0  0  0  0  0
   42.0140   35.2890   30.0820 C   0  0  0  0  0  0  0  0  0  0  0  0
   41.2230   38.7360   27.2890 N   0  0  0  0  0  0  0  0  0  0  0  0
   41.5200   36.0380   28.8310 C   0  0  0  0  0  0  0  0  0  0  0  0
   43.1480   35.7620   30.9010 N   0  0  0  0  0  0  0  0  0  0  0  0
   42.0660   37.5810   26.8900 C   0  0  0  0  0  0  0  0  0  0  0  0
   43.6410   37.5140   28.8910 C   0  0  0  0  0  0  0  0  0  0  0  0
   40.8330   35.2670   27.8630 O   0  0  0  0  0  0  0  0  0  0  0  0
   42.6400   36.7690   28.0530 C   0  0  0  0  0  0  0  0  0  0  0  0
   41.1570   34.1350   30.5810 C   0  0  0  0  0  0  0  0  0  0  0  0
  1  8  1  0
  3 11  1  0
  3  6  1  0
  5  9  1  0
  5  3  1  0
  7  4  1  0
  8  2  2  0
 10  7  1  0
 10  5  1  0
 10  8  1  0
M  END
$$$$

     RDKit          3D

 19 18  0  0  0  0  0  0  0  0999 V2000
   43.3040   35.0140   29.3030 O   0  0  0  0  0  0  0  0  0  0  0  0
   41.0320   35.7640   29.6720 C   0  0  0  0  0  0  0  0  0  0  0  0
   45.6930   38.1390   26.1540 C   0  0  0  0  0  0  0  0  0  0  0  0
   43.0790   36.8710   30.5170 O   0  0  0  0  0  0  0  0  0  0  0  0
   45.2350   35.2510   26.0610 C   0  0  0  0  0  0  0  0  0  0  0  0
   41.2310   33.2710   29.7030 O   0  0  0  0  0  0  0  0  0  0  0  0
   40.5150   38.8830   26.8750 C   0  0  0  0  0  0  0  0  0  0  0  0
   40.0440   38.5410   25.5020 C   0  0  0  0  0  0  0  0  0  0  0  0
   44.0910   36.8260   27.2910 O   0  0  0  0  0  0  0  0  0  0  0  0
   45.3060   36.6920   26.5860 C   0  0  0  0  0  0  0  0  0  0  0  0
   42.5880   35.9110   29.8520 C   0  0  0  0  0  0  0  0  0  0  0  0
   41.6010   38.2670   27.6010 O   0  0  0  0  0  0  0  0  0  0  0  0
   40.6520   34.4330   30.3320 C   0  0  0  0  0  0  0  0  0  0  0  0
   41.6880   36.8760   27.5350 C   0  0  0  0  0  0  0  0  0  0  0  0
   40.2460   35.1130   26.9150 O   0  0  0  0  0  0  0  0  0  0  0  0
   42.8620   36.4350   26.6670 C   0  0  0  0  0  0  0  0  0  0  0  0
   40.3130   36.8260   30.3460 O   0  0  0  0  0  0  0  0  0  0  0  0
   39.8130   39.7030   24.5900 C   0  0  0  0  0  0  0  0  0  0  0  0
   40.6510   35.8190   28.1100 C   0  0  0  0  0  0  0  0  0  0  0  0
  1 11  2  0
  2 11  1  0
  2 13  1  0
  2 17  1  0
  3 10  1  0
  5 10  1  0
  6 13  1  0
  7 12  1  0
  8  7  1  0
 10  9  1  0
 11  4  1  0
 14 16  1  0
 14 12  1  0
 14 19  1  0
 16  9  1  0
 18  8  1  0
 19 15  1  0
 19  2  1  0
M  END
$$$$

     RDKit          3D

 11 12  0  0  0  0  0  0  0  0999 V2000
   41.9050   37.4860   27.9030 N   0  0  0  0  0  0  0  0  0  0  0  0
   42.8120   37.3750   25.8820 C   0  0  0  0  0  0  0  0  0  0  0  0
   42.0000   37.3070   29.3710 C   0  0  0  0  0  0  0  0  0  0  0  0
   40.3860   35.5530   30.0630 C   0  0  0  0  0  0  0  0  0  0  0  0
   40.5500   34.3270   30.6720 C   0  0  0  0  0  0  0  0  0  0  0  0
   41.6910   35.8850   29.7030 C   0  0  0  0  0  0  0  0  0  0  0  0
   41.7130   38.1430   25.9670 C   0  0  0  0  0  0  0  0  0  0  0  0
   42.6940   36.9340   27.0470 N   0  0  0  0  0  0  0  0  0  0  0  0
   41.1250   38.3170   27.0880 N   0  0  0  0  0  0  0  0  0  0  0  0
   41.8370   33.9090   30.5860 N   0  0  0  0  0  0  0  0  0  0  0  0
   42.5560   34.9400   29.9920 N   0  0  0  0  0  0  0  0  0  0  0  0
  1  3  1  0
  2  7  1  0
  2  8  1  0
  3  6  1  0
  4  5  1  0
  6 11  1  0
  6  4  2  0
  7  9  1  0
  8  1  1  0
  9  1  1  0
 10  5  1  0
 11 10  2  0
M  END
$$$$

     RDKit          3D

  8  7  0  0  0  0  0  0  0  0999 V2000
   40.9250   36.4740   28.7880 C   0  0  0  0  0  0  0  0  0  0  0  0
   41.3420   36.1270   27.3980 C   0  0  0  0  0  0  0  0  0  0  0  0
   43.6310   36.9450   29.0610 O   0  0  0  0  0  0  0  0  0  0  0  0
   41.7400   35.8930   29.8220 N   0  0  0  0  0  0  0  0  0  0  0  0
   43.7610   36.0190   31.2500 C   0  0  0  0  0  0  0  0  0  0  0  0
   43.0770   36.3650   29.9550 C   0  0  0  0  0  0  0  0  0  0  0  0
   39.9390   37.1820   29.0090 O   0  0  0  0  0  0  0  0  0  0  0  0
   41.1980   34.7120   30.5420 C   0  0  0  0  0  0  0  0  0  0  0  0
  1  7  2  0
  1  4  1  0
  2  1  1  0
  3  6  2  0
  4  6  1  0
  4  8  1  0
  6  5  1  0
M  END
$$$$
