
     RDKit          3D

 20 21  0  0  0  0  0  0  0  0999 V2000
   45.8310   39.1150   29.7610 C   0  0  0  0  0  0  0  0  0  0  0  0
   42.2680   38.6150   37.1400 C   0  0  0  0  0  0  0  0  0  0  0  0
   43.9470   40.0460   31.0870 C   0  0  0  0  0  0  0  0  0  0  0  0
   43.6910   41.5000   30.6600 C   0  0  0  0  0  0  0  0  0  0  0  0
   44.4700   38.4490   29.2920 C   0  0  0  0  0  0  0  0  0  0  0  0
   45.4430   39.6940   31.1170 C   0  0  0  0  0  0  0  0  0  0  0  0
   41.0780   39.8080   31.9430 C   0  0  0  0  0  0  0  0  0  0  0  0
   43.0740   37.9510   31.3550 C   0  0  0  0  0  0  0  0  0  0  0  0
   44.3370   38.6380   38.3810 O   0  0  0  0  0  0  0  0  0  0  0  0
   41.8860   41.0880   32.2500 C   0  0  0  0  0  0  0  0  0  0  0  0
   42.5710   37.6680   34.6910 C   0  0  0  0  0  0  0  0  0  0  0  0
   42.5110   41.9290   31.2050 C   0  0  0  0  0  0  0  0  0  0  0  0
   43.1970   39.4420   34.5770 S   0  0  0  0  0  0  0  0  0  0  0  0
   41.8960   38.4500   32.2690 C   0  0  0  0  0  0  0  0  0  0  0  0
   44.3990   37.1030   31.4870 O   0  0  0  0  0  0  0  0  0  0  0  0
   44.3190   38.7940   27.8010 C   0  0  0  0  0  0  0  0  0  0  0  0
   42.6870   39.8480   36.3570 C   0  0  0  0  0  0  0  0  0  0  0  0
   43.0610   38.6080   38.4260 C   0  0  0  0  0  0  0  0  0  0  0  0
   41.5450   37.6630   33.5690 N   0  0  0  0  0  0  0  0  0  0  0  0
   43.2670   39.1030   30.1330 C   0  0  0  0  0  0  0  0  0  0  0  0
  1  6  1  0
  2 18  1  0
  3  4  1  0
  3  6  1  0
  4 12  1  0
  5 16  1  0
  5  1  1  0
  5 20  1  0
  7 10  1  0
  7 14  1  0
  8 15  1  0
  8 14  1  0
  9 18  2  0
 12 10  1  0
 13 11  1  0
 13 17  1  0
 14 19  1  0
 17  2  1  0
 19 11  1  0
 20  3  1  0
 20  8  1  0
M  END
$$$$

     RDKit          3D

  9  8  0  0  0  0  0  0  0  0999 V2000
   41.4660   40.3250   31.2920 C   0  0  0  0  0  0  0  0  0  0  0  0
   42.2900   41.1450   30.3460 C   0  0  0  0  0  0  0  0  0  0  0  0
   46.1920   42.8210   31.5210 S   0  0  0  0  0  0  0  0  0  0  0  0
   42.2750   42.6190   30.8430 C   0  0  0  0  0  0  0  0  0  0  0  0
   44.6030   43.9850   31.8360 C   0  0  0  0  0  0  0  0  0  0  0  0
   40.6850   39.4130   30.9070 O   0  0  0  0  0  0  0  0  0  0  0  0
   44.5650   45.2180   30.5790 O   0  0  0  0  0  0  0  0  0  0  0  0
   41.7010   40.5030   32.6020 O   0  0  0  0  0  0  0  0  0  0  0  0
   43.7900   42.9450   30.8600 C   0  0  0  0  0  0  0  0  0  0  0  0
  1  8  1  0
  2  4  1  0
  2  1  1  0
  3  5  1  0
  4  9  1  0
  5  7  1  0
  6  1  2  0
  9  5  1  0
M  END
$$$$

     RDKit          3D

 10 10  0  0  0  0  0  0  0  0999 V2000
   45.6700   40.8760   31.5970 C   0  0  0  0  0  0  0  0  0  0  0  0
   42.1650   39.6820   32.4930 C   0  0  0  0  0  0  0  0  0  0  0  0
   43.1670   37.6610   30.7870 C   0  0  0  0  0  0  0  0  0  0  0  0
   41.4620   38.4010   32.4550 C   0  0  0  0  0  0  0  0  0  0  0  0
   43.7710   38.9070   30.7760 C   0  0  0  0  0  0  0  0  0  0  0  0
   42.0680   37.4260   31.6390 C   0  0  0  0  0  0  0  0  0  0  0  0
   43.3160   39.9130   31.6300 C   0  0  0  0  0  0  0  0  0  0  0  0
   46.3570   42.0060   32.2740 C   0  0  0  0  0  0  0  0  0  0  0  0
   44.1950   41.0330   31.6640 O   0  0  0  0  0  0  0  0  0  0  0  0
   41.5440   40.8050   33.6180 Cl  0  0  0  0  0  0  0  0  0  0  0  0
  1  9  1  0
  1  8  1  0
  2 10  1  0
  3  6  1  0
  4  2  1  0
  5  3  2  0
  5  7  1  0
  6  4  2  0
  7  9  1  0
  7  2  2  0
M  END
$$$$

     RDKit          3D

  9  9  0  0  0  0  0  0  0  0999 V2000
   42.4080   41.7540   29.1250 O   0  0  0  0  0  0  0  0  0  0  0  0
   43.6660   39.8840   29.6330 O   0  0  0  0  0  0  0  0  0  0  0  0
   41.5920   41.5060   30.2990 C   0  0  0  0  0  0  0  0  0  0  0  0
   43.6430   37.2110   30.7040 N   0  0  0  0  0  0  0  0  0  0  0  0
   42.9420   39.4790   30.7050 C   0  0  0  0  0  0  0  0  0  0  0  0
   44.6260   41.3370   27.8090 Cl  0  0  0  0  0  0  0  0  0  0  0  0
   41.9480   40.3310   31.1130 C   0  0  0  0  0  0  0  0  0  0  0  0
   43.4850   41.2460   29.5090 C   0  0  0  0  0  0  0  0  0  0  0  0
   43.3420   38.3560   31.4260 C   0  0  0  0  0  0  0  0  0  0  0  0
  1  8  1  0
  1  3  1  0
  2  5  1  0
  3  7  1  0
  4  9  1  0
  5  7  2  0
  5  9  1  0
  8  6  1  0
  8  2  1  0
M  END
$$$$

     RDKit          3D

 20 21  0  0  0  0  0  0  0  0999 V2000
   41.6170   37.9690   29.0520 O   0  0  0  0  0  0  0  0  0  0  0  0
   37.6090   40.1750   26.7200 C   0  0  0  0  0  0  0  0  0  0  0  0
   41.8470   37.4380   33.4640 O   0  0  0  0  0  0  0  0  0  0  0  0
   41.4150   38.7450   29.9630 C   0  0  0  0  0  0  0  0  0  0  0  0
   40.0990   40.3980   30.8260 O   0  0  0  0  0  0  0  0  0  0  0  0
   46.5270   39.8030   30.9930 S   0  0  0  0  0  0  0  0  0  0  0  0
   44.9600   39.7910   30.2850 C   0  0  0  0  0  0  0  0  0  0  0  0
   39.6720   39.1600   27.5230 C   0  0  0  0  0  0  0  0  0  0  0  0
   43.0530   39.0460   31.7010 C   0  0  0  0  0  0  0  0  0  0  0  0
   40.4050   39.7710   29.6190 C   0  0  0  0  0  0  0  0  0  0  0  0
   46.0050   38.7410   32.4260 C   0  0  0  0  0  0  0  0  0  0  0  0
   38.8060   39.3830   26.5050 C   0  0  0  0  0  0  0  0  0  0  0  0
   41.8130   36.8320   32.0890 C   0  0  0  0  0  0  0  0  0  0  0  0
   44.2260   38.7180   30.8720 C   0  0  0  0  0  0  0  0  0  0  0  0
   38.5320   40.8420   28.8490 C   0  0  0  0  0  0  0  0  0  0  0  0
   41.9930   38.0690   31.1070 C   0  0  0  0  0  0  0  0  0  0  0  0
   37.5440   40.9670   27.8520 C   0  0  0  0  0  0  0  0  0  0  0  0
   42.4820   40.3640   31.8080 O   0  0  0  0  0  0  0  0  0  0  0  0
   45.0980   37.7740   31.8420 N   0  0  0  0  0  0  0  0  0  0  0  0
   39.5800   39.9560   28.6960 C   0  0  0  0  0  0  0  0  0  0  0  0
  1  4  2  0
  2 17  1  0
  4 16  1  0
  6 11  1  0
  7 14  1  0
  7  6  1  0
  8 20  2  0
  9 18  1  0
 10  4  1  0
 10  5  1  0
 12  2  2  0
 12  8  1  0
 13  3  1  0
 14  9  1  0
 14 19  1  0
 16  9  1  0
 16 13  1  0
 17 15  2  0
 19 11  1  0
 20 15  1  0
 20 10  1  0
M  END
$$$$

     RDKit          3D

 17 17  0  0  0  0  0  0  0  0999 V2000
   44.7340   39.8170   32.1350 C   0  0  0  0  0  0  0  0  0  0  0  0
   45.7130   37.2460   32.0450 O   0  0  0  0  0  0  0  0  0  0  0  0
   45.8990   40.5230   32.0520 O   0  0  0  0  0  0  0  0  0  0  0  0
   44.4530   39.0140   30.8530 C   0  0  0  0  0  0  0  0  0  0  0  0
   40.4700   39.4140   27.3230 C   0  0  0  0  0  0  0  0  0  0  0  0
   40.1560   40.9400   29.8440 C   0  0  0  0  0  0  0  0  0  0  0  0
   41.9590   39.7780   30.8180 C   0  0  0  0  0  0  0  0  0  0  0  0
   42.9720   38.3960   29.2270 N   0  0  0  0  0  0  0  0  0  0  0  0
   42.9670   38.6470   30.6160 C   0  0  0  0  0  0  0  0  0  0  0  0
   42.4520   37.5140   31.5010 C   0  0  0  0  0  0  0  0  0  0  0  0
   45.3910   37.8100   30.7530 C   0  0  0  0  0  0  0  0  0  0  0  0
   39.0900   41.2970   29.0950 C   0  0  0  0  0  0  0  0  0  0  0  0
   41.0840   39.9870   29.5830 N   0  0  0  0  0  0  0  0  0  0  0  0
   38.6130   40.8110   27.8680 C   0  0  0  0  0  0  0  0  0  0  0  0
   41.0210   39.3350   28.5410 C   0  0  0  0  0  0  0  0  0  0  0  0
   39.4180   40.1680   27.0000 C   0  0  0  0  0  0  0  0  0  0  0  0
   42.4200   40.6930   31.5940 O   0  0  0  0  0  0  0  0  0  0  0  0
  3  1  1  0
  4  1  1  0
  5 15  2  0
  7 17  2  0
  8  9  1  0
  9  7  1  0
  9  4  1  0
  9 10  1  0
 11  4  1  0
 11  2  1  0
 12  6  2  0
 13  6  1  0
 13  7  1  0
 14 12  1  0
 15 13  1  0
 16  5  1  0
 16 14  2  0
M  END
$$$$

     RDKit          3D

 10 10  0  0  0  0  0  0  0  0999 V2000
   42.2490   41.4140   31.7050 C   0  0  0  0  0  0  0  0  0  0  0  0
   43.6240   40.9520   31.5260 C   0  0  0  0  0  0  0  0  0  0  0  0
   45.4160   39.4290   30.5860 O   0  0  0  0  0  0  0  0  0  0  0  0
   41.6110   39.8950   29.8820 C   0  0  0  0  0  0  0  0  0  0  0  0
   44.2970   40.6100   32.7120 N   0  0  0  0  0  0  0  0  0  0  0  0
   42.9890   39.2320   29.9830 C   0  0  0  0  0  0  0  0  0  0  0  0
   41.2590   40.3530   31.1410 C   0  0  0  0  0  0  0  0  0  0  0  0
   44.1390   40.1690   30.4960 C   0  0  0  0  0  0  0  0  0  0  0  0
   44.9260   41.8020   32.8430 C   0  0  0  0  0  0  0  0  0  0  0  0
   43.0060   37.9830   30.5680 O   0  0  0  0  0  0  0  0  0  0  0  0
  2  1  1  0
  2  5  1  0
  4  6  1  0
  4  7  1  0
  5  9  1  0
  6  8  1  0
  6 10  1  0
  7  1  1  0
  8  3  1  0
  8  2  1  0
M  END
$$$$

     RDKit          3D

 15 16  0  0  0  0  0  0  0  0999 V2000
   43.7250   40.3000   30.8400 C   0  0  0  0  0  0  0  0  0  0  0  0
   41.6040   41.0110   29.9600 C   0  0  0  0  0  0  0  0  0  0  0  0
   40.9320   40.0700   30.6700 C   0  0  0  0  0  0  0  0  0  0  0  0
   41.7090   39.1100   31.3160 C   0  0  0  0  0  0  0  0  0  0  0  0
   43.8410   38.0450   31.5730 C   0  0  0  0  0  0  0  0  0  0  0  0
   45.3400   38.1280   31.5850 C   0  0  0  0  0  0  0  0  0  0  0  0
   45.9940   37.1230   32.4780 N   0  0  0  0  0  0  0  0  0  0  0  0
   43.0990   39.1260   31.2590 C   0  0  0  0  0  0  0  0  0  0  0  0
   45.7370   39.5320   31.9740 C   0  0  0  0  0  0  0  0  0  0  0  0
   45.1180   42.5450   31.8840 I   0  0  0  0  0  0  0  0  0  0  0  0
   40.6610   42.1210   28.8150 Br  0  0  0  0  0  0  0  0  0  0  0  0
   44.9310   40.5980   31.3880 C   0  0  0  0  0  0  0  0  0  0  0  0
   42.9800   41.1180   29.9930 C   0  0  0  0  0  0  0  0  0  0  0  0
   46.8870   39.6680   32.8870 N   0  0  0  0  0  0  0  0  0  0  0  0
   47.1520   38.8980   33.9730 N   0  0  0  0  0  0  0  0  0  0  0  0
  1  8  1  0
  1 12  1  0
  2 13  1  0
  2  3  2  0
  3  4  1  0
  5  6  1  0
  6  9  1  0
  6  7  1  0
  8  4  2  0
  8  5  1  0
  9 14  1  0
 11  2  1  0
 12 10  1  0
 12  9  1  0
 13  1  2  0
 14 15  1  0
M  END
$$$$

     RDKit          3D

  6  5  0  0  0  0  0  0  0  0999 V2000
   42.4560   44.6590   33.0950 O   0  0  0  0  0  0  0  0  0  0  0  0
   43.8260   43.0070   32.8020 O   0  0  0  0  0  0  0  0  0  0  0  0
   42.9490   41.4640   34.5740 O   0  0  0  0  0  0  0  0  0  0  0  0
   42.6480   44.6870   35.2670 O   0  0  0  0  0  0  0  0  0  0  0  0
   42.8990   43.7090   33.7750 S   0  0  0  0  0  0  0  0  0  0  0  0
   42.2500   42.3680   33.9430 C   0  0  0  0  0  0  0  0  0  0  0  0
  1  5  1  0
  2  5  1  0
  5  6  1  0
  5  4  1  0
  6  3  1  0
M  END
$$$$

     RDKit          3D

 20 21  0  0  0  0  0  0  0  0999 V2000
   42.6640   37.5610   28.1600 N   0  0  0  0  0  0  0  0  0  0  0  0
   40.6090   40.7160   31.0060 N   0  0  0  0  0  0  0  0  0  0  0  0
   39.6410   40.2870   28.6630 C   0  0  0  0  0  0  0  0  0  0  0  0
   42.8000   37.9920   34.3230 C   0  0  0  0  0  0  0  0  0  0  0  0
   41.5680   38.7900   34.0920 N   0  0  0  0  0  0  0  0  0  0  0  0
   42.1000   35.9930   32.9210 C   0  0  0  0  0  0  0  0  0  0  0  0
   39.7540   39.4330   27.5420 C   0  0  0  0  0  0  0  0  0  0  0  0
   42.2360   39.0640   30.9300 C   0  0  0  0  0  0  0  0  0  0  0  0
   43.2070   37.0240   33.1970 C   0  0  0  0  0  0  0  0  0  0  0  0
   43.5280   38.5060   31.3130 O   0  0  0  0  0  0  0  0  0  0  0  0
   41.6350   40.1290   33.4260 C   0  0  0  0  0  0  0  0  0  0  0  0
   41.5060   39.9550   31.9070 C   0  0  0  0  0  0  0  0  0  0  0  0
   42.7610   41.0040   34.1150 C   0  0  0  0  0  0  0  0  0  0  0  0
   44.6390   40.0250   35.4500 O   0  0  0  0  0  0  0  0  0  0  0  0
   43.3180   40.3660   35.4740 C   0  0  0  0  0  0  0  0  0  0  0  0
   42.5900   40.3140   36.4460 O   0  0  0  0  0  0  0  0  0  0  0  0
   41.5690   39.0960   29.6510 C   0  0  0  0  0  0  0  0  0  0  0  0
   41.6650   38.3480   28.3830 C   0  0  0  0  0  0  0  0  0  0  0  0
   40.7440   38.4110   27.4270 N   0  0  0  0  0  0  0  0  0  0  0  0
   40.5320   40.1360   29.7510 C   0  0  0  0  0  0  0  0  0  0  0  0
  1 18  1  0
  2 12  1  0
  3 20  1  0
  5  4  1  0
  6  9  1  0
  7  3  2  0
  8 10  1  0
  8 12  1  0
  9  4  1  0
 11  5  1  0
 11 13  1  0
 12 11  1  0
 13 15  1  0
 14 15  2  0
 15 16  1  0
 17 20  2  0
 17  8  1  0
 18 17  1  0
 19  7  1  0
 19 18  2  0
 20  2  1  0
M  END
$$$$

     RDKit          3D

 10 10  0  0  0  0  0  0  0  0999 V2000
   43.7120   38.4070   30.7650 C   0  0  0  0  0  0  0  0  0  0  0  0
   42.5790   38.2600   29.8660 C   0  0  0  0  0  0  0  0  0  0  0  0
   44.2030   37.4470   31.4070 O   0  0  0  0  0  0  0  0  0  0  0  0
   42.8290   42.6550   31.2700 C   0  0  0  0  0  0  0  0  0  0  0  0
   41.8020   40.7620   30.0350 C   0  0  0  0  0  0  0  0  0  0  0  0
   44.2540   39.9720   30.7030 S   0  0  0  0  0  0  0  0  0  0  0  0
   43.6050   43.0860   32.3580 C   0  0  0  0  0  0  0  0  0  0  0  0
   41.7640   39.2810   29.5550 C   0  0  0  0  0  0  0  0  0  0  0  0
   42.9560   41.1570   30.9460 C   0  0  0  0  0  0  0  0  0  0  0  0
   40.8820   41.5490   29.7010 O   0  0  0  0  0  0  0  0  0  0  0  0
  1  3  2  0
  2  1  1  0
  4  7  1  0
  5  9  1  0
  6  1  1  0
  6  9  1  0
  8  2  2  0
  8  5  1  0
  9  4  1  0
 10  5  2  0
M  END
$$$$

     RDKit          3D

 10 10  0  0  0  0  0  0  0  0999 V2000
   43.9290   41.1610   33.2090 C   0  0  0  0  0  0  0  0  0  0  0  0
   42.7070   40.5630   33.6100 O   0  0  0  0  0  0  0  0  0  0  0  0
   42.9910   37.9560   31.9390 N   0  0  0  0  0  0  0  0  0  0  0  0
   41.8360   40.1770   31.2690 C   0  0  0  0  0  0  0  0  0  0  0  0
   43.1340   37.5930   30.4230 C   0  0  0  0  0  0  0  0  0  0  0  0
   44.9770   39.1120   32.2520 O   0  0  0  0  0  0  0  0  0  0  0  0
   44.0140   38.7150   30.0800 C   0  0  0  0  0  0  0  0  0  0  0  0
   43.4800   39.5820   31.5280 S   0  0  0  0  0  0  0  0  0  0  0  0
   41.9520   41.2790   30.3860 O   0  0  0  0  0  0  0  0  0  0  0  0
   41.5350   40.6670   32.7380 C   0  0  0  0  0  0  0  0  0  0  0  0
  1  2  1  0
  4  9  1  0
  4  8  1  0
  4 10  1  0
  5  3  1  0
  7  5  1  0
  7  8  1  0
  8  3  1  0
  8  6  1  0
 10  2  1  0
M  END
$$$$

     RDKit          3D

 18 19  0  0  0  0  0  0  0  0999 V2000
   39.2310   40.6950   28.9150 C   0  0  0  0  0  0  0  0  0  0  0  0
   45.6470   39.0750   32.0800 C   0  0  0  0  0  0  0  0  0  0  0  0
   45.5350   41.3700   31.3730 O   0  0  0  0  0  0  0  0  0  0  0  0
   45.5100   38.1220   32.9800 C   0  0  0  0  0  0  0  0  0  0  0  0
   41.3360   40.1520   29.7890 C   0  0  0  0  0  0  0  0  0  0  0  0
   44.4760   40.5220   31.2680 C   0  0  0  0  0  0  0  0  0  0  0  0
   42.5000   41.9760   30.9820 C   0  0  0  0  0  0  0  0  0  0  0  0
   39.3030   39.4740   28.1400 C   0  0  0  0  0  0  0  0  0  0  0  0
   40.2340   40.9920   29.7530 C   0  0  0  0  0  0  0  0  0  0  0  0
   42.4150   40.7410   30.3060 N   0  0  0  0  0  0  0  0  0  0  0  0
   40.3520   38.6340   28.3080 N   0  0  0  0  0  0  0  0  0  0  0  0
   44.4170   37.4800   32.5450 C   0  0  0  0  0  0  0  0  0  0  0  0
   43.7990   38.1620   31.5490 C   0  0  0  0  0  0  0  0  0  0  0  0
   44.4870   39.4170   31.4900 C   0  0  0  0  0  0  0  0  0  0  0  0
   42.8110   37.6880   30.7030 N   0  0  0  0  0  0  0  0  0  0  0  0
   41.3500   38.8640   29.1820 C   0  0  0  0  0  0  0  0  0  0  0  0
   42.6170   38.1030   29.2440 C   0  0  0  0  0  0  0  0  0  0  0  0
   46.7770   39.3320   31.6660 O   0  0  0  0  0  0  0  0  0  0  0  0
  1  9  1  0
  2  4  1  0
  5 10  1  0
  6  3  1  0
  6 14  2  3
  8 11  1  0
  8  1  2  0
  9  5  2  0
 10  7  1  0
 11 16  2  0
 12  4  1  0
 13 15  1  0
 13 12  1  0
 14 13  1  0
 14  2  1  0
 16 17  1  0
 16  5  1  0
 17 15  1  0
 18  2  2  0
M  END
$$$$

     RDKit          3D

 19 19  0  0  0  0  0  0  0  0999 V2000
   44.9190   41.3820   30.4400 C   0  0  0  0  0  0  0  0  0  0  0  0
   38.0130   42.7110   28.0660 C   0  0  0  0  0  0  0  0  0  0  0  0
   42.8210   38.5510   29.2420 N   0  0  0  0  0  0  0  0  0  0  0  0
   43.5730   38.1610   28.1600 O   0  0  0  0  0  0  0  0  0  0  0  0
   43.7500   41.4630   28.3080 C   0  0  0  0  0  0  0  0  0  0  0  0
   41.3530   40.5040   29.5240 C   0  0  0  0  0  0  0  0  0  0  0  0
   44.5030   42.0280   33.6390 O   0  0  0  0  0  0  0  0  0  0  0  0
   43.8350   40.8450   29.8800 C   0  0  0  0  0  0  0  0  0  0  0  0
   46.4140   42.6500   32.1690 O   0  0  0  0  0  0  0  0  0  0  0  0
   39.1050   41.8840   28.6940 C   0  0  0  0  0  0  0  0  0  0  0  0
   42.6970   39.9330   29.7790 C   0  0  0  0  0  0  0  0  0  0  0  0
   45.3170   42.2580   31.3340 C   0  0  0  0  0  0  0  0  0  0  0  0
   40.0220   42.4950   29.5600 C   0  0  0  0  0  0  0  0  0  0  0  0
   44.1270   41.9510   32.4100 C   0  0  0  0  0  0  0  0  0  0  0  0
   43.2650   40.8320   32.0860 N   0  0  0  0  0  0  0  0  0  0  0  0
   41.0690   41.7590   30.0650 C   0  0  0  0  0  0  0  0  0  0  0  0
   39.2820   40.5650   28.2880 C   0  0  0  0  0  0  0  0  0  0  0  0
   42.3090   37.6120   29.8820 O   0  0  0  0  0  0  0  0  0  0  0  0
   40.4160   39.8620   28.6890 C   0  0  0  0  0  0  0  0  0  0  0  0
  1 12  1  0
  2 10  1  0
  3 18  2  0
  4  3  2  0
  6 11  1  0
  6 16  1  0
  8  5  1  0
  8  1  1  0
 10 13  1  0
 11  3  1  0
 11  8  1  0
 12  9  1  0
 12 14  1  0
 13 16  2  0
 14  7  2  0
 15 14  1  0
 17 19  1  0
 17 10  2  0
 19  6  2  0
M  END
$$$$

     RDKit          3D

  9  9  0  0  0  0  0  0  0  0999 V2000
   43.3460   41.8060   33.1600 C   0  0  0  0  0  0  0  0  0  0  0  0
   43.0060   38.7490   30.0690 C   0  0  0  0  0  0  0  0  0  0  0  0
   43.2260   40.7050   32.0540 C   0  0  0  0  0  0  0  0  0  0  0  0
   42.2990   39.7760   31.0840 C   0  0  0  0  0  0  0  0  0  0  0  0
   44.6990   40.5820   31.5770 N   0  0  0  0  0  0  0  0  0  0  0  0
   44.2060   39.1620   29.3970 C   0  0  0  0  0  0  0  0  0  0  0  0
   42.1190   42.0980   33.9480 N   0  0  0  0  0  0  0  0  0  0  0  0
   44.9690   40.3580   30.0680 C   0  0  0  0  0  0  0  0  0  0  0  0
   42.1160   43.5540   34.0980 C   0  0  0  0  0  0  0  0  0  0  0  0
  1  7  1  0
  2  4  1  0
  3  1  1  0
  4  3  2  0
  5  3  1  0
  6  8  1  0
  6  2  2  0
  7  9  1  0
  8  5  2  0
M  END
$$$$

     RDKit          3D

  6  5  0  0  0  0  0  0  0  0999 V2000
   43.5810   37.5220   30.0900 N   0  0  0  0  0  0  0  0  0  0  0  0
   42.2220   41.6620   31.4830 C   0  0  0  0  0  0  0  0  0  0  0  0
   43.0200   40.4100   31.1180 C   0  0  0  0  0  0  0  0  0  0  0  0
   42.3160   39.1100   31.5000 C   0  0  0  0  0  0  0  0  0  0  0  0
   42.1800   41.7220   32.8630 O   0  0  0  0  0  0  0  0  0  0  0  0
   43.2670   37.9040   31.4750 C   0  0  0  0  0  0  0  0  0  0  0  0
  1  6  1  0
  2  5  1  0
  3  2  1  0
  3  4  1  0
  6  4  1  0
M  END
$$$$

     RDKit          3D

 19 19  0  0  0  0  0  0  0  0999 V2000
   43.8970   39.0860   31.0550 C   0  0  0  0  0  0  0  0  0  0  0  0
   41.7230   39.2930   26.3770 O   0  0  0  0  0  0  0  0  0  0  0  0
   40.3390   40.8570   29.8220 O   0  0  0  0  0  0  0  0  0  0  0  0
   38.9630   41.1730   27.8040 C   0  0  0  0  0  0  0  0  0  0  0  0
   41.9060   38.8770   28.7860 O   0  0  0  0  0  0  0  0  0  0  0  0
   38.8040   40.9490   26.4010 O   0  0  0  0  0  0  0  0  0  0  0  0
   44.3490   39.1130   28.7080 C   0  0  0  0  0  0  0  0  0  0  0  0
   42.8790   38.3420   31.9170 C   0  0  0  0  0  0  0  0  0  0  0  0
   44.9130   39.1460   27.4540 C   0  0  0  0  0  0  0  0  0  0  0  0
   43.0570   40.1450   30.4950 C   0  0  0  0  0  0  0  0  0  0  0  0
   40.8500   39.1160   27.5580 P   0  0  0  0  0  0  0  0  0  0  0  0
   38.8330   43.7830   28.3810 C   0  0  0  0  0  0  0  0  0  0  0  0
   43.0170   39.7990   28.9520 C   0  0  0  0  0  0  0  0  0  0  0  0
   40.3210   40.6810   28.3790 C   0  0  0  0  0  0  0  0  0  0  0  0
   43.3450   40.7300   31.8560 O   0  0  0  0  0  0  0  0  0  0  0  0
   39.8970   38.1260   27.6750 O   0  0  0  0  0  0  0  0  0  0  0  0
   38.6500   42.6020   28.1640 C   0  0  0  0  0  0  0  0  0  0  0  0
   44.6400   38.4480   29.9110 O   0  0  0  0  0  0  0  0  0  0  0  0
   43.4990   37.1830   32.6290 C   0  0  0  0  0  0  0  0  0  0  0  0
  1  8  1  0
  4  6  1  0
  4 17  1  0
  4 14  1  0
  7 13  1  0
  7 18  1  0
  8 19  1  0
  9  7  2  0
 10  1  1  0
 10 15  1  0
 11  2  2  0
 11 16  1  0
 11 14  1  0
 11  5  1  0
 13  5  1  0
 13 10  1  0
 14  3  1  0
 17 12  3  0
 18  1  1  0
M  END
$$$$

     RDKit          3D

  6  5  0  0  0  0  0  0  0  0999 V2000
   43.5790   41.0160   31.9610 O   0  0  0  0  0  0  0  0  0  0  0  0
   41.2720   40.2510   31.2060 O   0  0  0  0  0  0  0  0  0  0  0  0
   43.2280   38.6120   31.3960 C   0  0  0  0  0  0  0  0  0  0  0  0
   42.4110   39.9620   32.0030 P   0  0  0  0  0  0  0  0  0  0  0  0
   42.0080   39.8300   33.4400 O   0  0  0  0  0  0  0  0  0  0  0  0
   44.1760   38.1710   32.3360 O   0  0  0  0  0  0  0  0  0  0  0  0
  1  4  1  0
  2  4  2  0
  3  4  1  0
  3  6  1  0
  4  5  1  0
M  END
$$$$

     RDKit          3D

 21 21  0  0  0  0  0  0  0  0999 V2000
   41.2430   42.2330   27.9810 F   0  0  0  0  0  0  0  0  0  0  0  0
   38.5790   41.4530   27.4560 O   0  0  0  0  0  0  0  0  0  0  0  0
   48.5290   39.2490   33.3170 O   0  0  0  0  0  0  0  0  0  0  0  0
   43.9300   38.0950   33.3540 O   0  0  0  0  0  0  0  0  0  0  0  0
   46.4350   39.9340   32.0620 N   0  0  0  0  0  0  0  0  0  0  0  0
   43.9220   39.0690   29.8720 C   0  0  0  0  0  0  0  0  0  0  0  0
   41.6770   38.8660   29.4310 N   0  0  0  0  0  0  0  0  0  0  0  0
   41.0400   40.0610   29.2700 C   0  0  0  0  0  0  0  0  0  0  0  0
   45.3150   37.8460   32.9850 C   0  0  0  0  0  0  0  0  0  0  0  0
   43.6400   40.7820   31.6390 O   0  0  0  0  0  0  0  0  0  0  0  0
   42.7440   38.2020   30.1360 C   0  0  0  0  0  0  0  0  0  0  0  0
   46.3600   39.8830   34.8390 S   0  0  0  0  0  0  0  0  0  0  0  0
   40.0410   39.5300   27.8400 S   0  0  0  0  0  0  0  0  0  0  0  0
   44.0020   39.8860   30.9670 C   0  0  0  0  0  0  0  0  0  0  0  0
   39.2160   41.3260   28.2520 C   0  0  0  0  0  0  0  0  0  0  0  0
   41.5670   41.3750   29.1600 C   0  0  0  0  0  0  0  0  0  0  0  0
   42.4470   37.2930   30.8120 O   0  0  0  0  0  0  0  0  0  0  0  0
   45.1000   38.6520   30.6640 C   0  0  0  0  0  0  0  0  0  0  0  0
   45.8290   38.5510   31.7260 C   0  0  0  0  0  0  0  0  0  0  0  0
   47.3910   39.7660   33.3780 S   0  0  0  0  0  0  0  0  0  0  0  0
   39.1530   42.1370   29.3840 N   0  0  0  0  0  0  0  0  0  0  0  0
  1 16  1  0
  2 15  2  0
  5 20  1  0
  6 11  1  0
  6 18  1  0
  6 14  1  0
  7 11  1  0
  8 16  1  0
  8  7  1  0
  9  4  1  0
 11 17  2  0
 13 15  1  0
 13  8  1  0
 14 10  2  0
 15 21  1  0
 18 14  1  0
 18 19  1  0
 19  5  1  0
 19  9  1  0
 20  3  2  0
 20 12  1  0
M  END
$$$$

     RDKit          3D

 13 14  0  0  0  0  0  0  0  0999 V2000
   40.7390   39.8520   31.7240 C   0  0  0  0  0  0  0  0  0  0  0  0
   42.7050   40.2320   33.0880 C   0  0  0  0  0  0  0  0  0  0  0  0
   41.3870   39.6210   29.4760 C   0  0  0  0  0  0  0  0  0  0  0  0
   42.0670   41.0150   33.8460 O   0  0  0  0  0  0  0  0  0  0  0  0
   40.3950   39.7050   30.4590 N   0  0  0  0  0  0  0  0  0  0  0  0
   39.7180   39.3150   27.5260 C   0  0  0  0  0  0  0  0  0  0  0  0
   41.9580   38.9080   27.1570 C   0  0  0  0  0  0  0  0  0  0  0  0
   39.8170   38.3590   26.2160 S   0  0  0  0  0  0  0  0  0  0  0  0
   42.4320   39.6670   30.3160 C   0  0  0  0  0  0  0  0  0  0  0  0
   41.0110   39.2740   28.0750 C   0  0  0  0  0  0  0  0  0  0  0  0
   43.9470   39.9110   33.3980 N   0  0  0  0  0  0  0  0  0  0  0  0
   42.1430   39.8360   31.7930 C   0  0  0  0  0  0  0  0  0  0  0  0
   41.3920   38.7310   25.9510 C   0  0  0  0  0  0  0  0  0  0  0  0
  1 12  1  0
  2 11  1  0
  2  4  2  0
  3  9  2  0
  3  5  1  0
  5  1  2  0
  6 10  1  0
  7 10  1  0
  8  6  1  0
  9 12  1  0
 10  3  1  0
 12  2  1  0
 13  8  1  0
 13  7  1  0
M  END
$$$$
