
     RDKit          3D

  5  4  0  0  0  0  0  0  0  0999 V2000
   41.8150   41.9330   29.9870 O   0  0  0  0  0  0  0  0  0  0  0  0
   39.5370   41.3610   29.8210 C   0  0  0  0  0  0  0  0  0  0  0  0
   41.0040   41.0710   29.6900 C   0  0  0  0  0  0  0  0  0  0  0  0
   41.3640   39.8850   29.4230 O   0  0  0  0  0  0  0  0  0  0  0  0
   39.1920   42.3770   28.8690 C   0  0  0  0  0  0  0  0  0  0  0  0
  3  2  1  0
  3  1  1  0
  4  3  2  0
  5  2  1  0
M  END
$$$$

     RDKit          3D

 11 11  0  0  0  0  0  0  0  0999 V2000
   37.8020   41.4760   29.3590 O   0  0  0  0  0  0  0  0  0  0  0  0
   39.6490   42.0820   28.0230 C   0  0  0  0  0  0  0  0  0  0  0  0
   42.9530   40.5750   30.5050 C   0  0  0  0  0  0  0  0  0  0  0  0
   41.8070   39.6760   30.1290 C   0  0  0  0  0  0  0  0  0  0  0  0
   39.3040   41.1220   26.9430 C   0  0  0  0  0  0  0  0  0  0  0  0
   38.3940   42.5760   28.6770 C   0  0  0  0  0  0  0  0  0  0  0  0
   40.4930   41.3340   29.0520 C   0  0  0  0  0  0  0  0  0  0  0  0
   42.6970   42.0340   30.0900 C   0  0  0  0  0  0  0  0  0  0  0  0
   41.2650   42.3750   29.8120 C   0  0  0  0  0  0  0  0  0  0  0  0
   41.4440   40.2340   28.8570 N   0  0  0  0  0  0  0  0  0  0  0  0
   40.8410   43.5880   29.8720 O   0  0  0  0  0  0  0  0  0  0  0  0
  2  5  1  0
  2  6  1  0
  4  3  1  0
  6  1  1  0
  7  2  1  0
  7  9  1  0
  8  3  1  0
  9 11  1  0
  9  8  1  0
 10  7  1  0
 10  4  1  0
M  END
$$$$

     RDKit          3D

  9  9  0  0  0  0  0  0  0  0999 V2000
   40.0160   40.0150   30.0210 N   0  0  0  0  0  0  0  0  0  0  0  0
   38.4850   43.1560   28.7680 C   0  0  0  0  0  0  0  0  0  0  0  0
   39.3800   41.0300   29.3570 C   0  0  0  0  0  0  0  0  0  0  0  0
   42.1450   39.5920   28.8860 N   0  0  0  0  0  0  0  0  0  0  0  0
   38.6430   42.3580   27.4870 C   0  0  0  0  0  0  0  0  0  0  0  0
   39.3510   41.0640   27.8050 C   0  0  0  0  0  0  0  0  0  0  0  0
   38.7730   42.2300   29.9560 C   0  0  0  0  0  0  0  0  0  0  0  0
   41.9850   40.1620   31.0600 O   0  0  0  0  0  0  0  0  0  0  0  0
   41.4040   39.9620   29.9550 C   0  0  0  0  0  0  0  0  0  0  0  0
  2  7  1  0
  3  7  1  0
  3  1  1  0
  4  9  1  0
  5  6  1  0
  5  2  1  0
  6  3  1  0
  9  1  1  0
  9  8  2  0
M  END
$$$$

     RDKit          3D

  9  8  0  0  0  0  0  0  0  0999 V2000
   39.8680   43.4190   26.0820 C   0  0  0  0  0  0  0  0  0  0  0  0
   39.6750   41.4560   27.5210 C   0  0  0  0  0  0  0  0  0  0  0  0
   40.6870   40.2200   29.7100 C   0  0  0  0  0  0  0  0  0  0  0  0
   41.7890   39.9380   28.8470 O   0  0  0  0  0  0  0  0  0  0  0  0
   42.6360   40.9720   31.1880 N   0  0  0  0  0  0  0  0  0  0  0  0
   39.6600   41.1310   29.0270 C   0  0  0  0  0  0  0  0  0  0  0  0
   41.1750   40.7200   31.0960 C   0  0  0  0  0  0  0  0  0  0  0  0
   39.0340   42.7960   27.1890 C   0  0  0  0  0  0  0  0  0  0  0  0
   38.6140   41.5040   29.8190 N   0  0  0  0  0  0  0  0  0  0  0  0
  1  8  1  0
  2  6  1  0
  3  4  1  0
  3  7  1  0
  6  3  1  0
  6  9  1  0
  7  5  1  0
  8  2  1  0
M  END
$$$$

     RDKit          3D

 14 14  0  0  0  0  0  0  0  0999 V2000
   40.2320   41.2780   28.2300 N   0  0  0  0  0  0  0  0  0  0  0  0
   39.6280   42.7370   30.7400 C   0  0  0  0  0  0  0  0  0  0  0  0
   40.0740   41.3240   31.1190 C   0  0  0  0  0  0  0  0  0  0  0  0
   41.1560   42.2060   28.7970 C   0  0  0  0  0  0  0  0  0  0  0  0
   38.8040   39.2370   31.0860 N   0  0  0  0  0  0  0  0  0  0  0  0
   42.0870   43.5650   26.7230 C   0  0  0  0  0  0  0  0  0  0  0  0
   39.3160   40.2370   30.3740 C   0  0  0  0  0  0  0  0  0  0  0  0
   38.6380   39.5990   28.1650 O   0  0  0  0  0  0  0  0  0  0  0  0
   42.8470   41.1490   27.5070 C   0  0  0  0  0  0  0  0  0  0  0  0
   42.5000   40.1940   28.5970 N   0  0  0  0  0  0  0  0  0  0  0  0
   40.5490   43.3330   29.6530 C   0  0  0  0  0  0  0  0  0  0  0  0
   41.8720   42.9650   25.2990 C   0  0  0  0  0  0  0  0  0  0  0  0
   42.3770   42.5490   27.8680 C   0  0  0  0  0  0  0  0  0  0  0  0
   39.3150   40.3760   28.8420 C   0  0  0  0  0  0  0  0  0  0  0  0
  1  4  1  0
  1 14  1  0
  2  3  1  0
  4 13  1  0
  4 11  1  0
  7  5  2  0
  7  3  1  0
  8 14  2  0
  9 13  1  0
  9 10  1  0
 11  2  1  0
 12  6  1  0
 13  6  1  0
 14  7  1  0
M  END
$$$$

     RDKit          3D

 14 15  0  0  0  0  0  0  0  0999 V2000
   39.2240   39.4080   29.7700 N   0  0  0  0  0  0  0  0  0  0  0  0
   39.9760   40.4380   29.4590 C   0  0  0  0  0  0  0  0  0  0  0  0
   35.8840   41.6950   28.1180 O   0  0  0  0  0  0  0  0  0  0  0  0
   40.3400   41.0790   28.1370 C   0  0  0  0  0  0  0  0  0  0  0  0
   37.3390   38.0920   29.7530 C   0  0  0  0  0  0  0  0  0  0  0  0
   38.0290   41.7700   27.0140 C   0  0  0  0  0  0  0  0  0  0  0  0
   40.5750   40.8480   30.4290 O   0  0  0  0  0  0  0  0  0  0  0  0
   37.3080   39.8030   28.0850 O   0  0  0  0  0  0  0  0  0  0  0  0
   35.8640   37.6200   29.7550 C   0  0  0  0  0  0  0  0  0  0  0  0
   37.6910   39.5700   29.4540 C   0  0  0  0  0  0  0  0  0  0  0  0
   39.4660   38.1960   30.5170 C   0  0  0  0  0  0  0  0  0  0  0  0
   38.4490   37.3540   30.0050 N   0  0  0  0  0  0  0  0  0  0  0  0
   39.3660   40.9450   26.9040 C   0  0  0  0  0  0  0  0  0  0  0  0
   37.2370   41.2750   28.1920 C   0  0  0  0  0  0  0  0  0  0  0  0
  1 11  1  0
  2  1  1  0
  2  7  2  0
  4  2  1  0
  5  9  1  0
  5 12  1  0
  6 14  1  0
  8 14  1  0
 10  8  1  0
 10  5  1  0
 10  1  1  0
 12 11  1  0
 13  6  1  0
 13  4  1  0
 14  3  1  0
M  END
$$$$

     RDKit          3D

 10  9  0  0  0  0  0  0  0  0999 V2000
   40.4830   42.6450   30.3560 C   0  0  0  0  0  0  0  0  0  0  0  0
   40.6980   40.1330   29.3570 C   0  0  0  0  0  0  0  0  0  0  0  0
   40.1260   41.5600   31.3460 C   0  0  0  0  0  0  0  0  0  0  0  0
   40.3880   43.9800   30.8520 C   0  0  0  0  0  0  0  0  0  0  0  0
   39.3730   40.8000   27.2350 N   0  0  0  0  0  0  0  0  0  0  0  0
   39.4010   40.4350   28.5440 C   0  0  0  0  0  0  0  0  0  0  0  0
   40.7960   42.4470   29.2040 O   0  0  0  0  0  0  0  0  0  0  0  0
   39.9840   40.5180   26.1950 C   0  0  0  0  0  0  0  0  0  0  0  0
   40.4690   40.2190   30.8080 N   0  0  0  0  0  0  0  0  0  0  0  0
   38.3520   40.3770   29.1580 O   0  0  0  0  0  0  0  0  0  0  0  0
  1  4  1  0
  1  3  1  0
  2  9  1  0
  5  6  1  0
  6 10  2  0
  6  2  1  0
  7  1  2  0
  8  5  2  0
  9  3  1  0
M  END
$$$$

     RDKit          3D

 10  9  0  0  0  0  0  0  0  0999 V2000
   38.4370   41.9230   29.3980 C   0  0  0  0  0  0  0  0  0  0  0  0
   40.5630   42.6910   30.3280 C   0  0  0  0  0  0  0  0  0  0  0  0
   41.8230   43.1150   30.5880 O   0  0  0  0  0  0  0  0  0  0  0  0
   39.5680   40.7390   26.9760 O   0  0  0  0  0  0  0  0  0  0  0  0
   38.6460   39.6890   26.7000 C   0  0  0  0  0  0  0  0  0  0  0  0
   39.9400   40.0250   29.2120 O   0  0  0  0  0  0  0  0  0  0  0  0
   40.0170   42.3530   29.0140 C   0  0  0  0  0  0  0  0  0  0  0  0
   40.3700   40.9240   28.2390 C   0  0  0  0  0  0  0  0  0  0  0  0
   38.0790   42.1710   30.4400 O   0  0  0  0  0  0  0  0  0  0  0  0
   37.7310   41.6370   28.4960 O   0  0  0  0  0  0  0  0  0  0  0  0
  1  9  1  0
  2  3  1  0
  4  8  1  0
  5  4  1  0
  7  1  1  0
  7  2  1  0
  8  7  1  0
  8  6  1  0
 10  1  2  0
M  END
$$$$

     RDKit          3D

  7  6  0  0  0  0  0  0  0  0999 V2000
   41.2270   40.1910   29.5350 C   0  0  0  0  0  0  0  0  0  0  0  0
   39.0320   41.6320   29.4420 C   0  0  0  0  0  0  0  0  0  0  0  0
   39.4080   42.9180   29.1810 N   0  0  0  0  0  0  0  0  0  0  0  0
   39.9300   40.7110   29.2320 N   0  0  0  0  0  0  0  0  0  0  0  0
   41.6920   41.6170   27.8760 F   0  0  0  0  0  0  0  0  0  0  0  0
   42.0730   41.4360   29.1910 C   0  0  0  0  0  0  0  0  0  0  0  0
   38.0060   41.4970   30.0330 O   0  0  0  0  0  0  0  0  0  0  0  0
  2  7  2  0
  3  2  1  0
  4  2  1  0
  4  1  1  0
  5  6  1  0
  6  1  1  0
M  END
$$$$

     RDKit          3D

 14 15  0  0  0  0  0  0  0  0999 V2000
   36.1960   40.1840   24.5510 C   0  0  0  0  0  0  0  0  0  0  0  0
   35.9020   41.3170   25.3850 N   0  0  0  0  0  0  0  0  0  0  0  0
   33.8470   44.3120   25.7060 C   0  0  0  0  0  0  0  0  0  0  0  0
   35.7830   43.2470   26.8470 C   0  0  0  0  0  0  0  0  0  0  0  0
   38.4770   40.3850   26.3340 O   0  0  0  0  0  0  0  0  0  0  0  0
   34.7700   43.2630   25.9420 C   0  0  0  0  0  0  0  0  0  0  0  0
   32.6960   42.7370   24.3650 C   0  0  0  0  0  0  0  0  0  0  0  0
   38.0740   40.9440   28.2610 C   0  0  0  0  0  0  0  0  0  0  0  0
   33.6230   41.7960   24.5740 C   0  0  0  0  0  0  0  0  0  0  0  0
   37.7660   41.1730   26.9610 C   0  0  0  0  0  0  0  0  0  0  0  0
   36.6310   41.9430   26.5020 C   0  0  0  0  0  0  0  0  0  0  0  0
   38.0980   42.0950   28.7410 C   0  0  0  0  0  0  0  0  0  0  0  0
   33.0150   44.0820   24.8100 C   0  0  0  0  0  0  0  0  0  0  0  0
   34.7700   42.0480   25.2860 C   0  0  0  0  0  0  0  0  0  0  0  0
  1  2  1  0
  2 11  1  0
  5 10  2  0
  6  3  1  0
  6  4  1  0
  7  9  2  0
  7 13  1  0
  8 12  1  0
 10  8  1  0
 11  4  1  0
 11 10  1  0
 13  3  1  0
 14  9  1  0
 14  2  1  0
 14  6  1  0
M  END
$$$$

     RDKit          3D

  7  6  0  0  0  0  0  0  0  0999 V2000
   41.4710   42.0770   31.4580 O   0  0  0  0  0  0  0  0  0  0  0  0
   40.6740   40.4940   29.7470 C   0  0  0  0  0  0  0  0  0  0  0  0
   38.1880   41.2910   30.0560 C   0  0  0  0  0  0  0  0  0  0  0  0
   39.4120   41.2270   30.0830 C   0  0  0  0  0  0  0  0  0  0  0  0
   41.9450   41.2270   30.4030 C   0  0  0  0  0  0  0  0  0  0  0  0
   40.8790   39.0310   29.9740 O   0  0  0  0  0  0  0  0  0  0  0  0
   39.4710   42.7390   29.8530 C   0  0  0  0  0  0  0  0  0  0  0  0
  2  6  1  0
  2  4  1  0
  2  5  1  0
  3  4  2  0
  5  1  1  0
  7  4  1  0
M  END
$$$$

     RDKit          3D

 15 16  0  0  0  0  0  0  0  0999 V2000
   31.3500   33.5950   31.3440 C   0  0  0  0  0  0  0  0  0  0  0  0
   29.4930   32.4460   31.0250 C   0  0  0  0  0  0  0  0  0  0  0  0
   31.6100   35.9620   30.6030 C   0  0  0  0  0  0  0  0  0  0  0  0
   32.8240   34.7230   34.2930 C   0  0  0  0  0  0  0  0  0  0  0  0
   32.0290   32.7050   33.3740 C   0  0  0  0  0  0  0  0  0  0  0  0
   32.6790   35.3940   29.3940 S   0  0  0  0  0  0  0  0  0  0  0  0
   30.0410   33.5050   31.2360 N   0  0  0  0  0  0  0  0  0  0  0  0
   33.2710   35.4180   35.5650 C   0  0  0  0  0  0  0  0  0  0  0  0
   31.9930   34.8660   31.6790 C   0  0  0  0  0  0  0  0  0  0  0  0
   32.4240   32.6400   30.3030 S   0  0  0  0  0  0  0  0  0  0  0  0
   28.1250   31.8190   30.9970 C   0  0  0  0  0  0  0  0  0  0  0  0
   33.6040   33.7020   29.9560 C   0  0  0  0  0  0  0  0  0  0  0  0
   32.1860   35.4870   33.2010 C   0  0  0  0  0  0  0  0  0  0  0  0
   28.7150   32.0960   32.2820 C   0  0  0  0  0  0  0  0  0  0  0  0
   32.9310   33.4270   34.1610 C   0  0  0  0  0  0  0  0  0  0  0  0
  1  7  1  0
  1  9  1  0
  2  7  1  0
  2 14  1  0
  3  9  1  0
  4  8  1  0
  5 15  1  0
  6 12  1  0
  6  3  1  0
  9 13  1  0
 10  1  1  0
 11  2  1  0
 11 14  1  0
 12 10  1  0
 13  4  1  0
 15  4  1  0
M  END
$$$$

     RDKit          3D

 17 18  0  0  0  0  0  0  0  0999 V2000
   38.8610   44.7950   27.3630 C   0  0  0  0  0  0  0  0  0  0  0  0
   38.6930   41.4320   28.5600 C   0  0  0  0  0  0  0  0  0  0  0  0
   36.9630   41.0500   24.7600 O   0  0  0  0  0  0  0  0  0  0  0  0
   39.8750   42.0390   30.2410 C   0  0  0  0  0  0  0  0  0  0  0  0
   38.6130   40.2740   28.0460 C   0  0  0  0  0  0  0  0  0  0  0  0
   38.8780   39.9990   30.8290 C   0  0  0  0  0  0  0  0  0  0  0  0
   39.7630   43.3800   29.5410 C   0  0  0  0  0  0  0  0  0  0  0  0
   38.1280   42.5330   26.3870 C   0  0  0  0  0  0  0  0  0  0  0  0
   38.7410   42.5490   27.7430 C   0  0  0  0  0  0  0  0  0  0  0  0
   38.9280   39.3070   28.6860 O   0  0  0  0  0  0  0  0  0  0  0  0
   38.7960   41.1290   29.9760 N   0  0  0  0  0  0  0  0  0  0  0  0
   40.7150   42.0320   31.2990 N   0  0  0  0  0  0  0  0  0  0  0  0
   40.0000   44.3470   30.1780 O   0  0  0  0  0  0  0  0  0  0  0  0
   37.7030   41.3220   26.0010 C   0  0  0  0  0  0  0  0  0  0  0  0
   37.9790   40.1490   26.7600 C   0  0  0  0  0  0  0  0  0  0  0  0
   37.4940   40.0630   31.4840 O   0  0  0  0  0  0  0  0  0  0  0  0
   39.2900   43.6860   28.2640 N   0  0  0  0  0  0  0  0  0  0  0  0
  1 17  1  0
  2  5  1  0
  2 11  1  0
  3 14  1  0
  4 12  1  0
  5 10  2  0
  6 16  1  0
  7 13  2  0
  7  4  1  0
  9  8  1  0
  9 17  1  0
  9  2  1  0
 11  4  1  0
 11  6  1  0
 14  8  1  0
 14 15  2  0
 15  5  1  0
 17  7  1  0
M  END
$$$$

     RDKit          3D

  8  8  0  0  0  0  0  0  0  0999 V2000
   40.5860   41.3120   27.9070 C   0  0  0  0  0  0  0  0  0  0  0  0
   40.9470   42.5690   27.9540 O   0  0  0  0  0  0  0  0  0  0  0  0
   41.8350   40.3950   28.2170 C   0  0  0  0  0  0  0  0  0  0  0  0
   39.5430   41.3300   29.1300 C   0  0  0  0  0  0  0  0  0  0  0  0
   40.3840   42.3060   31.0120 O   0  0  0  0  0  0  0  0  0  0  0  0
   40.5310   41.2560   30.3500 C   0  0  0  0  0  0  0  0  0  0  0  0
   42.1330   40.7570   29.9000 S   0  0  0  0  0  0  0  0  0  0  0  0
   38.3890   42.1220   29.7350 O   0  0  0  0  0  0  0  0  0  0  0  0
  1  2  1  0
  1  3  1  0
  1  4  1  0
  3  7  1  0
  4  8  1  0
  4  6  1  0
  6  5  1  0
  7  6  1  0
M  END
$$$$

     RDKit          3D

 11 10  0  0  0  0  0  0  0  0999 V2000
   40.1550   41.1430   28.1310 C   0  0  0  0  0  0  0  0  0  0  0  0
   40.4920   41.5250   29.4210 C   0  0  0  0  0  0  0  0  0  0  0  0
   39.1980   42.0800   27.8870 O   0  0  0  0  0  0  0  0  0  0  0  0
   40.9980   42.4060   30.0630 O   0  0  0  0  0  0  0  0  0  0  0  0
   41.6350   41.7760   26.4810 C   0  0  0  0  0  0  0  0  0  0  0  0
   37.9400   42.1340   28.9330 C   0  0  0  0  0  0  0  0  0  0  0  0
   43.5060   41.4700   29.3050 C   0  0  0  0  0  0  0  0  0  0  0  0
   41.6070   41.2000   27.5960 C   0  0  0  0  0  0  0  0  0  0  0  0
   42.7410   40.5890   28.3240 C   0  0  0  0  0  0  0  0  0  0  0  0
   42.8800   41.2360   30.5860 O   0  0  0  0  0  0  0  0  0  0  0  0
   39.4680   40.6520   30.2060 O   0  0  0  0  0  0  0  0  0  0  0  0
  1  8  1  0
  1  2  1  0
  2  4  2  0
  2 11  1  0
  3  1  1  0
  3  6  1  0
  5  8  2  0
  7 10  1  0
  8  9  1  0
  9  7  1  0
M  END
$$$$

     RDKit          3D

 20 20  0  0  0  0  0  0  0  0999 V2000
   40.0910   42.4390   28.9350 C   0  0  0  0  0  0  0  0  0  0  0  0
   32.7650   41.7760   27.2780 C   0  0  0  0  0  0  0  0  0  0  0  0
   40.2490   38.7570   31.0480 C   0  0  0  0  0  0  0  0  0  0  0  0
   35.0550   42.9550   26.9250 C   0  0  0  0  0  0  0  0  0  0  0  0
   41.5890   40.6270   29.9050 C   0  0  0  0  0  0  0  0  0  0  0  0
   34.3370   41.7070   27.4310 C   0  0  0  0  0  0  0  0  0  0  0  0
   37.4980   39.9780   26.7630 C   0  0  0  0  0  0  0  0  0  0  0  0
   39.7920   37.4430   30.6430 C   0  0  0  0  0  0  0  0  0  0  0  0
   40.0740   41.1490   28.1090 C   0  0  0  0  0  0  0  0  0  0  0  0
   39.0580   40.1280   29.8210 C   0  0  0  0  0  0  0  0  0  0  0  0
   37.1720   40.8160   26.2880 C   0  0  0  0  0  0  0  0  0  0  0  0
   37.1640   41.9710   27.3460 C   0  0  0  0  0  0  0  0  0  0  0  0
   32.1900   42.6560   26.2400 O   0  0  0  0  0  0  0  0  0  0  0  0
   34.2690   44.0120   26.4890 N   0  0  0  0  0  0  0  0  0  0  0  0
   41.8120   38.7450   31.5470 N   0  0  0  0  0  0  0  0  0  0  0  0
   38.0070   41.7730   28.3010 N   0  0  0  0  0  0  0  0  0  0  0  0
   38.8580   40.5490   28.4410 C   0  0  0  0  0  0  0  0  0  0  0  0
   36.3660   43.1210   27.2340 N   0  0  0  0  0  0  0  0  0  0  0  0
   41.6490   42.4410   29.7110 S   0  0  0  0  0  0  0  0  0  0  0  0
   40.3170   39.8620   30.2050 N   0  0  0  0  0  0  0  0  0  0  0  0
  1 19  1  0
  2  6  1  0
  3  8  1  0
  3 15  1  0
  4 18  1  0
  4  6  1  0
  5 20  1  0
  9 17  1  0
  9  1  1  0
 10 20  1  0
 11  7  1  0
 11 12  1  0
 12 16  2  3
 13  2  1  0
 14  4  2  0
 17 16  1  0
 17 10  1  0
 18 12  1  0
 19  5  1  0
 20  3  1  0
M  END
$$$$

     RDKit          3D

 13 13  0  0  0  0  0  0  0  0999 V2000
   38.2350   40.6420   28.7310 C   0  0  0  0  0  0  0  0  0  0  0  0
   37.4630   41.6680   27.7220 C   0  0  0  0  0  0  0  0  0  0  0  0
   39.0630   39.0240   30.7070 O   0  0  0  0  0  0  0  0  0  0  0  0
   38.3810   42.3650   26.9050 O   0  0  0  0  0  0  0  0  0  0  0  0
   40.5250   41.0910   28.8600 O   0  0  0  0  0  0  0  0  0  0  0  0
   37.8810   39.4250   30.8060 C   0  0  0  0  0  0  0  0  0  0  0  0
   37.3070   39.3530   31.7820 O   0  0  0  0  0  0  0  0  0  0  0  0
   37.3290   39.7660   29.4380 C   0  0  0  0  0  0  0  0  0  0  0  0
   39.5390   40.6620   28.1350 C   0  0  0  0  0  0  0  0  0  0  0  0
   36.3370   41.0660   27.0300 C   0  0  0  0  0  0  0  0  0  0  0  0
   35.8590   39.7850   28.3440 S   0  0  0  0  0  0  0  0  0  0  0  0
   39.8210   39.8760   27.1620 O   0  0  0  0  0  0  0  0  0  0  0  0
   35.7570   42.2210   26.1140 C   0  0  0  0  0  0  0  0  0  0  0  0
  1  9  1  0
  1  8  1  0
  2  4  1  0
  2  1  1  0
  3  6  2  0
  6  7  1  0
  8  6  1  0
  9  5  1  0
 10 13  1  0
 10  2  1  0
 10 11  1  0
 11  8  1  0
 12  9  2  0
M  END
$$$$

     RDKit          3D

 23 26  0  0  0  0  0  0  0  0999 V2000
   40.9250   41.0850   31.6950 N   0  0  0  0  0  0  0  0  0  0  0  0
   41.9030   38.9540   31.2550 N   0  0  0  0  0  0  0  0  0  0  0  0
   40.9780   38.8750   30.1100 C   0  0  0  0  0  0  0  0  0  0  0  0
   32.9730   41.6910   26.5680 C   0  0  0  0  0  0  0  0  0  0  0  0
   37.8440   40.4070   26.3030 C   0  0  0  0  0  0  0  0  0  0  0  0
   38.6050   41.3900   27.0070 C   0  0  0  0  0  0  0  0  0  0  0  0
   42.1520   40.4030   31.6620 C   0  0  0  0  0  0  0  0  0  0  0  0
   35.2380   40.5990   26.1660 N   0  0  0  0  0  0  0  0  0  0  0  0
   40.8430   41.2480   29.3780 C   0  0  0  0  0  0  0  0  0  0  0  0
   40.1100   39.9060   29.5070 C   0  0  0  0  0  0  0  0  0  0  0  0
   36.5980   42.2410   27.0620 N   0  0  0  0  0  0  0  0  0  0  0  0
   36.4230   41.0340   26.5350 N   0  0  0  0  0  0  0  0  0  0  0  0
   39.1920   43.4410   29.2510 C   0  0  0  0  0  0  0  0  0  0  0  0
   32.4570   40.3010   26.4220 N   0  0  0  0  0  0  0  0  0  0  0  0
   38.0630   39.1880   26.1070 O   0  0  0  0  0  0  0  0  0  0  0  0
   31.0440   40.0020   26.1480 N   0  0  0  0  0  0  0  0  0  0  0  0
   41.0350   41.9880   30.7280 C   0  0  0  0  0  0  0  0  0  0  0  0
   38.3850   43.7620   27.9640 C   0  0  0  0  0  0  0  0  0  0  0  0
   40.0870   42.0600   28.4790 C   0  0  0  0  0  0  0  0  0  0  0  0
   39.8040   41.0050   27.3940 O   0  0  0  0  0  0  0  0  0  0  0  0
   34.4710   41.6700   26.6480 C   0  0  0  0  0  0  0  0  0  0  0  0
   35.2930   42.6510   27.1110 C   0  0  0  0  0  0  0  0  0  0  0  0
   37.9390   42.5190   27.2970 C   0  0  0  0  0  0  0  0  0  0  0  0
  2  7  1  0
  3  2  1  0
  4 21  1  0
  5 12  1  0
  6  5  1  0
  6 23  1  0
  6 20  1  0
  7  1  1  0
  8 12  1  0
  8 21  1  0
  9 10  1  0
  9 17  1  0
 10  3  1  0
 11 22  1  0
 11 23  1  0
 12 11  1  0
 14  4  1  0
 15  5  2  0
 16 14  1  0
 17  1  1  0
 18 13  1  0
 19 13  1  0
 19  9  1  0
 20 19  1  0
 21 22  2  0
 23 18  1  0
M  END
$$$$

     RDKit          3D

 10 10  0  0  0  0  0  0  0  0999 V2000
   40.1520   42.9720   27.8250 C   0  0  0  0  0  0  0  0  0  0  0  0
   43.1680   40.5770   28.9050 O   0  0  0  0  0  0  0  0  0  0  0  0
   42.7670   40.2500   31.2100 O   0  0  0  0  0  0  0  0  0  0  0  0
   40.6580   40.7360   29.3530 C   0  0  0  0  0  0  0  0  0  0  0  0
   39.3880   40.8950   27.3300 C   0  0  0  0  0  0  0  0  0  0  0  0
   38.1340   41.7890   27.5560 C   0  0  0  0  0  0  0  0  0  0  0  0
   40.1790   41.5870   28.2940 N   0  0  0  0  0  0  0  0  0  0  0  0
   38.7190   43.2420   27.4280 C   0  0  0  0  0  0  0  0  0  0  0  0
   42.4340   42.4240   30.4500 O   0  0  0  0  0  0  0  0  0  0  0  0
   42.3320   41.0080   30.0700 P   0  0  0  0  0  0  0  0  0  0  0  0
  1  7  1  0
  2 10  2  0
  4 10  1  0
  5  6  1  0
  5  7  1  0
  7  4  1  0
  8  6  1  0
  8  1  1  0
 10  9  1  0
 10  3  1  0
M  END
$$$$

     RDKit          3D

 10  9  0  0  0  0  0  0  0  0999 V2000
   40.3790   40.8070   31.4000 O   0  0  0  0  0  0  0  0  0  0  0  0
   39.2450   41.1320   28.1630 C   0  0  0  0  0  0  0  0  0  0  0  0
   42.0380   44.7980   29.3270 C   0  0  0  0  0  0  0  0  0  0  0  0
   40.4060   41.3020   29.1290 C   0  0  0  0  0  0  0  0  0  0  0  0
   41.5060   42.3590   28.8700 C   0  0  0  0  0  0  0  0  0  0  0  0
   41.5070   39.5160   30.0300 O   0  0  0  0  0  0  0  0  0  0  0  0
   41.5460   43.5110   29.8700 N   0  0  0  0  0  0  0  0  0  0  0  0
   40.7590   40.4890   30.2420 C   0  0  0  0  0  0  0  0  0  0  0  0
   39.5190   40.0200   27.2810 O   0  0  0  0  0  0  0  0  0  0  0  0
   42.6660   41.6180   28.8830 O   0  0  0  0  0  0  0  0  0  0  0  0
  3  7  1  0
  4  2  1  0
  4  8  1  0
  5 10  1  0
  5  4  1  0
  5  7  1  0
  6  8  2  0
  8  1  1  0
  9  2  1  0
M  END
$$$$
