
     RDKit          3D

 13 12  0  0  0  0  0  0  0  0999 V2000
   42.0820   35.9850   29.5500 N   0  0  0  0  0  0  0  0  0  0  0  0
   41.8470   37.0810   30.2570 C   0  0  0  0  0  0  0  0  0  0  0  0
   42.2270   35.3830   32.9160 C   0  0  0  0  0  0  0  0  0  0  0  0
   42.9860   40.0710   29.8300 C   0  0  0  0  0  0  0  0  0  0  0  0
   43.9900   39.3420   29.6020 O   0  0  0  0  0  0  0  0  0  0  0  0
   43.1380   41.4280   29.9120 N   0  0  0  0  0  0  0  0  0  0  0  0
   44.5360   36.2970   32.7960 C   0  0  0  0  0  0  0  0  0  0  0  0
   42.5970   37.3500   31.5040 C   0  0  0  0  0  0  0  0  0  0  0  0
   41.5160   39.6660   29.8980 C   0  0  0  0  0  0  0  0  0  0  0  0
   43.2470   36.0710   32.0450 C   0  0  0  0  0  0  0  0  0  0  0  0
   41.2820   38.2380   29.4460 C   0  0  0  0  0  0  0  0  0  0  0  0
   42.6590   34.0910   33.2850 O   0  0  0  0  0  0  0  0  0  0  0  0
   44.1880   37.0250   33.8980 O   0  0  0  0  0  0  0  0  0  0  0  0
  1  2  2  0
  2  8  1  0
  3 12  1  0
  4  9  1  0
  4  6  1  0
  5  4  2  0
  7 13  1  0
  8 10  1  0
 10  7  1  0
 10  3  1  0
 11  9  1  0
 11  2  1  0
M  END
$$$$

     RDKit          3D

 12 12  0  0  0  0  0  0  0  0999 V2000
   42.0850   37.8120   30.5600 N   0  0  0  0  0  0  0  0  0  0  0  0
   45.6170   35.7500   31.9030 C   0  0  0  0  0  0  0  0  0  0  0  0
   44.8160   36.5270   30.7910 C   0  0  0  0  0  0  0  0  0  0  0  0
   44.2990   37.4540   31.8270 C   0  0  0  0  0  0  0  0  0  0  0  0
   42.4200   36.2580   32.5460 O   0  0  0  0  0  0  0  0  0  0  0  0
   42.5290   39.3150   30.1780 C   0  0  0  0  0  0  0  0  0  0  0  0
   41.8720   39.8550   29.3640 O   0  0  0  0  0  0  0  0  0  0  0  0
   42.2790   36.7380   29.5300 C   0  0  0  0  0  0  0  0  0  0  0  0
   43.5440   39.8330   30.8320 O   0  0  0  0  0  0  0  0  0  0  0  0
   42.7940   37.4720   31.9700 C   0  0  0  0  0  0  0  0  0  0  0  0
   43.6150   36.2150   29.7310 N   0  0  0  0  0  0  0  0  0  0  0  0
   41.5600   36.3230   28.5730 O   0  0  0  0  0  0  0  0  0  0  0  0
  1 10  1  0
  3  4  1  0
  3  2  1  0
  4 10  1  0
  6  1  1  0
  6  9  1  0
  7  6  2  0
  8 11  1  0
  8  1  1  0
 10  5  1  0
 11  3  1  0
 12  8  2  0
M  END
$$$$

     RDKit          3D

  9  8  0  0  0  0  0  0  0  0999 V2000
   45.7660   36.2320   33.9170 O   0  0  0  0  0  0  0  0  0  0  0  0
   42.4140   35.9370   32.5700 C   0  0  0  0  0  0  0  0  0  0  0  0
   45.3850   38.4300   32.7020 O   0  0  0  0  0  0  0  0  0  0  0  0
   42.5200   34.9630   33.5150 O   0  0  0  0  0  0  0  0  0  0  0  0
   44.5870   34.8550   31.9560 O   0  0  0  0  0  0  0  0  0  0  0  0
   41.6280   35.6210   31.2990 C   0  0  0  0  0  0  0  0  0  0  0  0
   44.7220   37.1660   33.1650 P   0  0  0  0  0  0  0  0  0  0  0  0
   43.8660   36.1230   31.9870 C   0  0  0  0  0  0  0  0  0  0  0  0
   43.6340   37.5580   34.2290 O   0  0  0  0  0  0  0  0  0  0  0  0
  2  6  1  0
  2  4  1  0
  3  7  2  0
  7  1  1  0
  7  9  1  0
  8  5  1  0
  8  2  1  0
  8  7  1  0
M  END
$$$$

     RDKit          3D

 15 17  0  0  0  0  0  0  0  0999 V2000
   41.9010   37.7840   29.6940 N   0  0  0  0  0  0  0  0  0  0  0  0
   43.0480   39.2620   31.0320 C   0  0  0  0  0  0  0  0  0  0  0  0
   44.7390   37.9730   32.2590 C   0  0  0  0  0  0  0  0  0  0  0  0
   46.7680   38.3210   33.4440 O   0  0  0  0  0  0  0  0  0  0  0  0
   46.5220   36.2330   32.2940 C   0  0  0  0  0  0  0  0  0  0  0  0
   41.7910   36.0810   28.3100 O   0  0  0  0  0  0  0  0  0  0  0  0
   44.0270   36.9190   31.4730 C   0  0  0  0  0  0  0  0  0  0  0  0
   43.2880   38.0320   31.8750 C   0  0  0  0  0  0  0  0  0  0  0  0
   45.6590   35.7190   33.4500 C   0  0  0  0  0  0  0  0  0  0  0  0
   41.8140   36.4660   29.4500 C   0  0  0  0  0  0  0  0  0  0  0  0
   41.7900   39.0260   30.2540 C   0  0  0  0  0  0  0  0  0  0  0  0
   41.4270   35.8810   30.6030 N   0  0  0  0  0  0  0  0  0  0  0  0
   44.6830   36.3160   33.5380 C   0  0  0  0  0  0  0  0  0  0  0  0
   46.3210   37.7770   32.2200 C   0  0  0  0  0  0  0  0  0  0  0  0
   44.1500   37.5380   33.4890 N   0  0  0  0  0  0  0  0  0  0  0  0
  1 11  1  0
  3  7  1  0
  3 15  1  0
  5  9  1  0
  6 10  2  0
  7  8  1  0
  8  2  1  0
  8  3  1  0
  8 15  1  0
  9 13  1  0
 10  1  1  0
 10 12  1  0
 11  2  1  0
 14  3  1  0
 14  5  1  0
 14  4  1  0
 15 13  1  0
M  END
$$$$

     RDKit          3D

 10  9  0  0  0  0  0  0  0  0999 V2000
   41.8850   37.4260   30.7130 C   0  0  0  0  0  0  0  0  0  0  0  0
   43.4600   36.6700   32.5210 C   0  0  0  0  0  0  0  0  0  0  0  0
   44.3430   37.2600   31.4890 C   0  0  0  0  0  0  0  0  0  0  0  0
   42.0700   38.7140   30.8580 O   0  0  0  0  0  0  0  0  0  0  0  0
   41.3490   36.9280   29.6500 O   0  0  0  0  0  0  0  0  0  0  0  0
   42.1260   36.4240   31.7900 C   0  0  0  0  0  0  0  0  0  0  0  0
   43.3650   37.5350   33.6770 O   0  0  0  0  0  0  0  0  0  0  0  0
   44.3950   36.4080   30.4310 O   0  0  0  0  0  0  0  0  0  0  0  0
   45.4600   38.0070   32.2170 C   0  0  0  0  0  0  0  0  0  0  0  0
   46.6210   37.6650   31.5240 O   0  0  0  0  0  0  0  0  0  0  0  0
  1  4  1  0
  1  6  1  0
  2  7  1  0
  3  8  1  0
  3  9  1  0
  3  2  1  0
  5  1  2  0
  6  2  1  0
 10  9  1  0
M  END
$$$$

     RDKit          3D

 23 25  0  0  0  0  0  0  0  0999 V2000
   49.4800   37.0490   28.5840 C   0  0  0  0  0  0  0  0  0  0  0  0
   40.9280   34.2440   31.8330 N   0  0  0  0  0  0  0  0  0  0  0  0
   45.0150   36.7060   29.3440 C   0  0  0  0  0  0  0  0  0  0  0  0
   44.9430   38.5590   27.8400 N   0  0  0  0  0  0  0  0  0  0  0  0
   42.5040   34.2620   33.6670 C   0  0  0  0  0  0  0  0  0  0  0  0
   43.2340   37.1340   31.2270 C   0  0  0  0  0  0  0  0  0  0  0  0
   48.8540   36.2920   27.4820 N   0  0  0  0  0  0  0  0  0  0  0  0
   42.8140   38.4320   30.3490 C   0  0  0  0  0  0  0  0  0  0  0  0
   42.9090   38.0350   28.9070 C   0  0  0  0  0  0  0  0  0  0  0  0
   41.4810   35.4260   31.3360 C   0  0  0  0  0  0  0  0  0  0  0  0
   43.1470   35.3410   33.0820 N   0  0  0  0  0  0  0  0  0  0  0  0
   46.7340   35.4580   28.2120 N   0  0  0  0  0  0  0  0  0  0  0  0
   50.6030   37.4590   28.5850 O   0  0  0  0  0  0  0  0  0  0  0  0
   46.2190   37.7980   27.6030 C   0  0  0  0  0  0  0  0  0  0  0  0
   44.2290   36.3450   30.5620 O   0  0  0  0  0  0  0  0  0  0  0  0
   49.3970   36.4210   26.1440 C   0  0  0  0  0  0  0  0  0  0  0  0
   44.2330   37.8040   28.6530 C   0  0  0  0  0  0  0  0  0  0  0  0
   46.0970   36.5960   28.2940 C   0  0  0  0  0  0  0  0  0  0  0  0
   41.4560   33.6940   32.9390 C   0  0  0  0  0  0  0  0  0  0  0  0
   47.9250   35.2310   27.7210 C   0  0  0  0  0  0  0  0  0  0  0  0
   41.6310   39.1580   30.6130 O   0  0  0  0  0  0  0  0  0  0  0  0
   42.5860   35.8970   31.9710 C   0  0  0  0  0  0  0  0  0  0  0  0
   41.9180   36.9830   28.7290 O   0  0  0  0  0  0  0  0  0  0  0  0
  1 13  2  0
  2 19  1  0
  3 15  1  0
  6 22  1  0
  7 20  1  0
  7  1  1  0
  8 21  1  0
  8  6  1  0
  9 23  1  0
  9  8  1  0
 10  2  2  0
 10 22  1  0
 11  5  1  0
 14  4  1  0
 14 18  1  0
 15  6  1  0
 16  7  1  0
 17  4  1  0
 17  9  1  0
 17  3  1  0
 18 12  1  0
 18  3  1  0
 19  5  2  0
 20 12  1  0
 22 11  2  0
M  END
$$$$

     RDKit          3D

 12 12  0  0  0  0  0  0  0  0999 V2000
   41.9020   36.9850   31.3800 C   0  0  0  0  0  0  0  0  0  0  0  0
   42.0890   35.8950   29.2880 O   0  0  0  0  0  0  0  0  0  0  0  0
   40.3590   41.6520   26.1130 Br  0  0  0  0  0  0  0  0  0  0  0  0
   41.2440   37.9440   27.6790 C   0  0  0  0  0  0  0  0  0  0  0  0
   40.7120   40.3350   27.4130 C   0  0  0  0  0  0  0  0  0  0  0  0
   41.6260   35.9280   31.8710 N   0  0  0  0  0  0  0  0  0  0  0  0
   41.3990   36.7630   27.0000 F   0  0  0  0  0  0  0  0  0  0  0  0
   41.7750   36.8860   29.9250 C   0  0  0  0  0  0  0  0  0  0  0  0
   41.4450   38.1060   29.0900 C   0  0  0  0  0  0  0  0  0  0  0  0
   40.8700   39.0380   26.8530 C   0  0  0  0  0  0  0  0  0  0  0  0
   40.9520   40.5450   28.8420 C   0  0  0  0  0  0  0  0  0  0  0  0
   41.3560   39.4320   29.6800 C   0  0  0  0  0  0  0  0  0  0  0  0
  1  6  1  0
  2  8  2  0
  3  5  1  0
  4  9  1  0
  5 11  2  0
  7  4  1  0
  8  1  1  0
  9 12  2  0
  9  8  1  0
 10  5  1  0
 10  4  2  0
 11 12  1  0
M  END
$$$$

     RDKit          3D

  5  4  0  0  0  0  0  0  0  0999 V2000
   43.7680   37.7780   30.2380 O   0  0  0  0  0  0  0  0  0  0  0  0
   43.8770   36.4230   33.5940 N   0  0  0  0  0  0  0  0  0  0  0  0
   41.8660   37.0260   31.3360 O   0  0  0  0  0  0  0  0  0  0  0  0
   43.1680   37.0380   31.2400 C   0  0  0  0  0  0  0  0  0  0  0  0
   44.1140   36.2420   32.1830 C   0  0  0  0  0  0  0  0  0  0  0  0
  1  4  2  0
  4  3  1  0
  4  5  1  0
  5  2  1  0
M  END
$$$$

     RDKit          3D

 13 13  0  0  0  0  0  0  0  0999 V2000
   42.4900   40.8140   29.7370 O   0  0  0  0  0  0  0  0  0  0  0  0
   41.6080   36.1400   30.6090 Cl  0  0  0  0  0  0  0  0  0  0  0  0
   40.7740   38.7860   29.1300 Cl  0  0  0  0  0  0  0  0  0  0  0  0
   44.7820   38.4900   31.5250 N   0  0  0  0  0  0  0  0  0  0  0  0
   43.5440   36.6970   33.9880 N   0  0  0  0  0  0  0  0  0  0  0  0
   45.2410   35.2160   32.8550 C   0  0  0  0  0  0  0  0  0  0  0  0
   43.9210   36.1160   32.5310 C   0  0  0  0  0  0  0  0  0  0  0  0
   42.6020   37.4990   30.7840 C   0  0  0  0  0  0  0  0  0  0  0  0
   44.2820   39.7540   30.9300 C   0  0  0  0  0  0  0  0  0  0  0  0
   42.1790   38.6660   30.1280 C   0  0  0  0  0  0  0  0  0  0  0  0
   43.8840   37.3360   31.5910 C   0  0  0  0  0  0  0  0  0  0  0  0
   45.2730   41.4800   31.0320 I   0  0  0  0  0  0  0  0  0  0  0  0
   43.0020   39.8000   30.2620 C   0  0  0  0  0  0  0  0  0  0  0  0
  1 13  2  0
  2  8  1  0
  3 10  1  0
  4 11  1  0
  7  6  1  0
  7  5  1  0
  8 11  1  0
  9 12  1  0
  9  4  2  0
 10 13  1  0
 10  8  2  0
 11  7  1  0
 13  9  1  0
M  END
$$$$

     RDKit          3D

 20 21  0  0  0  0  0  0  0  0999 V2000
   44.1720   35.2390   31.7350 C   0  0  0  0  0  0  0  0  0  0  0  0
   42.4360   35.1820   33.5610 N   0  0  0  0  0  0  0  0  0  0  0  0
   44.7840   36.2610   30.7900 C   0  0  0  0  0  0  0  0  0  0  0  0
   43.9530   38.0340   32.8520 C   0  0  0  0  0  0  0  0  0  0  0  0
   42.9160   40.1220   29.1690 S   0  0  0  0  0  0  0  0  0  0  0  0
   42.9440   38.5150   29.4460 C   0  0  0  0  0  0  0  0  0  0  0  0
   41.4560   34.0360   31.8640 O   0  0  0  0  0  0  0  0  0  0  0  0
   43.6470   35.7150   33.0940 C   0  0  0  0  0  0  0  0  0  0  0  0
   41.3530   40.0520   28.5160 C   0  0  0  0  0  0  0  0  0  0  0  0
   41.9020   36.5410   28.9400 O   0  0  0  0  0  0  0  0  0  0  0  0
   41.6490   34.4030   32.9890 C   0  0  0  0  0  0  0  0  0  0  0  0
   41.8530   37.7990   28.9280 C   0  0  0  0  0  0  0  0  0  0  0  0
   45.1860   38.7740   30.3890 C   0  0  0  0  0  0  0  0  0  0  0  0
   44.2580   39.0390   33.3580 O   0  0  0  0  0  0  0  0  0  0  0  0
   43.9620   37.6860   30.5590 S   0  0  0  0  0  0  0  0  0  0  0  0
   40.5900   41.3050   28.1090 C   0  0  0  0  0  0  0  0  0  0  0  0
   40.8900   38.8270   28.3480 C   0  0  0  0  0  0  0  0  0  0  0  0
   44.2440   36.8810   33.8060 C   0  0  0  0  0  0  0  0  0  0  0  0
   43.2550   37.7240   31.7610 O   0  0  0  0  0  0  0  0  0  0  0  0
   43.5000   37.2010   34.9770 O   0  0  0  0  0  0  0  0  0  0  0  0
  1  8  1  0
  3  1  1  0
  4 14  2  0
  4 18  1  0
  5  6  1  0
  6 12  1  0
  6 15  1  0
  7 11  2  0
  8  2  2  3
  8 18  1  0
  9  5  1  0
 11  2  1  0
 12 10  2  0
 15 13  1  0
 15  3  1  0
 15 19  1  0
 16  9  1  0
 17  9  2  0
 17 12  1  0
 18 20  1  0
 19  4  1  0
M  END
$$$$

     RDKit          3D

 12 12  0  0  0  0  0  0  0  0999 V2000
   43.9350   39.1300   32.4940 C   0  0  0  0  0  0  0  0  0  0  0  0
   44.0490   37.5180   34.9100 Cl  0  0  0  0  0  0  0  0  0  0  0  0
   43.7320   39.1570   31.1320 C   0  0  0  0  0  0  0  0  0  0  0  0
   43.4290   37.9790   29.2510 O   0  0  0  0  0  0  0  0  0  0  0  0
   41.6410   33.6310   32.9440 C   0  0  0  0  0  0  0  0  0  0  0  0
   43.6330   37.9250   33.1910 C   0  0  0  0  0  0  0  0  0  0  0  0
   42.9800   36.9100   32.5200 C   0  0  0  0  0  0  0  0  0  0  0  0
   43.3410   38.0270   30.4780 C   0  0  0  0  0  0  0  0  0  0  0  0
   41.6570   34.9970   32.3900 C   0  0  0  0  0  0  0  0  0  0  0  0
   42.8860   36.9100   31.1410 C   0  0  0  0  0  0  0  0  0  0  0  0
   41.1030   35.2960   31.4100 O   0  0  0  0  0  0  0  0  0  0  0  0
   42.4060   35.8630   33.1250 N   0  0  0  0  0  0  0  0  0  0  0  0
  1  6  1  0
  3  1  2  0
  4  8  2  0
  6  2  1  0
  7 12  1  0
  7  6  1  0
  8  3  1  0
  8 10  1  0
  9  5  1  0
  9 12  1  0
 10  7  2  0
 11  9  2  0
M  END
$$$$

     RDKit          3D

 15 17  0  0  0  0  0  0  0  0999 V2000
   42.6570   37.2220   30.4180 C   0  0  0  0  0  0  0  0  0  0  0  0
   44.3260   39.2900   30.9680 C   0  0  0  0  0  0  0  0  0  0  0  0
   44.4170   36.8610   32.3770 C   0  0  0  0  0  0  0  0  0  0  0  0
   43.2220   41.4860   30.4250 O   0  0  0  0  0  0  0  0  0  0  0  0
   44.4920   35.3390   32.6830 C   0  0  0  0  0  0  0  0  0  0  0  0
   43.0890   39.5870   29.9430 C   0  0  0  0  0  0  0  0  0  0  0  0
   43.0600   37.0230   31.7170 C   0  0  0  0  0  0  0  0  0  0  0  0
   41.7150   36.1850   28.5230 O   0  0  0  0  0  0  0  0  0  0  0  0
   43.3140   40.8910   29.1620 C   0  0  0  0  0  0  0  0  0  0  0  0
   45.1420   38.1650   31.7470 C   0  0  0  0  0  0  0  0  0  0  0  0
   41.0940   37.9990   30.2480 C   0  0  0  0  0  0  0  0  0  0  0  0
   41.5290   39.4240   29.7970 C   0  0  0  0  0  0  0  0  0  0  0  0
   41.4360   36.8870   29.5800 C   0  0  0  0  0  0  0  0  0  0  0  0
   42.8880   35.8650   30.8570 O   0  0  0  0  0  0  0  0  0  0  0  0
   45.3360   40.2970   31.1060 O   0  0  0  0  0  0  0  0  0  0  0  0
  1 14  1  0
  1  7  1  0
  2 15  1  0
  2 10  1  0
  3  5  1  0
  6  9  1  0
  6  2  1  0
  7 14  1  0
  7  3  1  0
  9  4  1  0
 10  3  1  0
 11 12  1  0
 11  1  1  0
 12  6  1  0
 13  8  1  0
 13 11  1  0
 13  1  1  0
M  END
$$$$

     RDKit          3D

 18 20  0  0  0  0  0  0  0  0999 V2000
   44.3110   38.0980   31.6110 C   0  0  0  0  0  0  0  0  0  0  0  0
   40.7840   40.5670   29.1990 C   0  0  0  0  0  0  0  0  0  0  0  0
   43.1120   34.6150   32.6500 O   0  0  0  0  0  0  0  0  0  0  0  0
   42.2710   36.8180   30.7370 C   0  0  0  0  0  0  0  0  0  0  0  0
   42.0170   37.9350   29.8070 C   0  0  0  0  0  0  0  0  0  0  0  0
   40.5640   38.4590   27.9270 C   0  0  0  0  0  0  0  0  0  0  0  0
   45.8540   36.8940   33.0440 C   0  0  0  0  0  0  0  0  0  0  0  0
   44.0130   39.3080   30.9140 C   0  0  0  0  0  0  0  0  0  0  0  0
   42.6650   39.2240   30.1810 C   0  0  0  0  0  0  0  0  0  0  0  0
   40.4250   39.7720   28.3380 C   0  0  0  0  0  0  0  0  0  0  0  0
   43.7840   35.8390   32.5960 C   0  0  0  0  0  0  0  0  0  0  0  0
   43.4910   36.9320   31.6720 C   0  0  0  0  0  0  0  0  0  0  0  0
   41.3230   37.5420   28.6680 C   0  0  0  0  0  0  0  0  0  0  0  0
   41.4280   35.7480   30.7370 N   0  0  0  0  0  0  0  0  0  0  0  0
   42.0920   40.5990   30.0100 C   0  0  0  0  0  0  0  0  0  0  0  0
   41.3890   36.3470   28.2540 O   0  0  0  0  0  0  0  0  0  0  0  0
   44.8530   36.0720   33.3900 C   0  0  0  0  0  0  0  0  0  0  0  0
   45.4310   38.0520   32.3810 O   0  0  0  0  0  0  0  0  0  0  0  0
  1  8  1  0
  1 12  1  0
  1 18  1  0
  2 15  1  0
  4 14  1  0
  4 12  1  0
  5 13  1  0
  5  9  1  0
  5  4  1  0
  6 10  2  0
  6 13  1  0
  7 17  1  0
  9 15  1  0
  9  8  1  0
 10  2  1  0
 11  3  1  0
 11 17  1  0
 12 11  2  0
 16 13  2  0
 18  7  1  0
M  END
$$$$

     RDKit          3D

  7  6  0  0  0  0  0  0  0  0999 V2000
   43.7750   37.8150   33.0990 C   0  0  0  0  0  0  0  0  0  0  0  0
   41.5640   35.6410   31.8660 C   0  0  0  0  0  0  0  0  0  0  0  0
   43.0680   35.1230   33.7530 N   0  0  0  0  0  0  0  0  0  0  0  0
   41.3830   36.7510   30.9940 O   0  0  0  0  0  0  0  0  0  0  0  0
   45.2820   36.2900   31.8130 C   0  0  0  0  0  0  0  0  0  0  0  0
   43.8020   36.7510   31.9960 C   0  0  0  0  0  0  0  0  0  0  0  0
   43.0250   35.5570   32.3660 C   0  0  0  0  0  0  0  0  0  0  0  0
  2  7  1  0
  4  2  1  0
  5  6  1  0
  6  7  1  0
  6  1  1  0
  7  3  1  0
M  END
$$$$

     RDKit          3D

 15 15  0  0  0  0  0  0  0  0999 V2000
   44.3690   38.4410   29.9230 C   0  0  0  0  0  0  0  0  0  0  0  0
   42.7260   35.4120   33.4060 C   0  0  0  0  0  0  0  0  0  0  0  0
   44.0280   38.3090   33.8750 S   0  0  0  0  0  0  0  0  0  0  0  0
   44.2220   38.1430   32.2510 C   0  0  0  0  0  0  0  0  0  0  0  0
   45.3960   38.8580   31.7660 C   0  0  0  0  0  0  0  0  0  0  0  0
   43.1150   40.5420   30.0680 C   0  0  0  0  0  0  0  0  0  0  0  0
   43.1510   37.6530   31.8640 N   0  0  0  0  0  0  0  0  0  0  0  0
   42.1120   36.6450   30.2070 C   0  0  0  0  0  0  0  0  0  0  0  0
   43.0680   36.1750   32.0960 C   0  0  0  0  0  0  0  0  0  0  0  0
   42.5240   40.6600   28.8190 C   0  0  0  0  0  0  0  0  0  0  0  0
   42.0080   36.2610   29.1130 O   0  0  0  0  0  0  0  0  0  0  0  0
   43.0940   33.9930   33.1890 N   0  0  0  0  0  0  0  0  0  0  0  0
   42.1960   35.6740   31.1270 N   0  0  0  0  0  0  0  0  0  0  0  0
   43.2600   38.9650   30.0720 C   0  0  0  0  0  0  0  0  0  0  0  0
   42.2190   37.9760   30.7370 C   0  0  0  0  0  0  0  0  0  0  0  0
  1 14  2  0
  4  3  2  0
  5  4  1  0
  6 14  1  0
  7  9  1  0
  7  4  1  0
  8 15  1  0
  8 13  1  0
  9  2  1  0
 10  6  1  0
 11  8  2  0
 12  2  1  0
 13  9  1  0
 15 14  1  0
 15  7  1  0
M  END
$$$$

     RDKit          3D

 10 11  0  0  0  0  0  0  0  0999 V2000
   42.0350   37.0570   29.6910 C   0  0  0  0  0  0  0  0  0  0  0  0
   44.8180   36.7420   34.0010 C   0  0  0  0  0  0  0  0  0  0  0  0
   44.8800   35.2870   33.5960 C   0  0  0  0  0  0  0  0  0  0  0  0
   43.1890   38.5360   31.1490 C   0  0  0  0  0  0  0  0  0  0  0  0
   42.0690   36.0660   30.6250 C   0  0  0  0  0  0  0  0  0  0  0  0
   43.8730   35.7330   34.4940 N   0  0  0  0  0  0  0  0  0  0  0  0
   44.0520   37.8970   33.3260 C   0  0  0  0  0  0  0  0  0  0  0  0
   42.6710   36.3200   31.8470 C   0  0  0  0  0  0  0  0  0  0  0  0
   43.2470   37.5430   32.0790 C   0  0  0  0  0  0  0  0  0  0  0  0
   42.6000   38.2640   29.9740 C   0  0  0  0  0  0  0  0  0  0  0  0
  1 10  2  0
  1  5  1  0
  2  7  1  0
  2  6  1  0
  3  2  1  0
  3  6  1  0
  4  9  2  0
  5  8  2  0
  8  9  1  0
  9  7  1  0
 10  4  1  0
M  END
$$$$

     RDKit          3D

 23 23  0  0  0  0  0  0  0  0999 V2000
   40.5190   40.0840   28.9640 C   0  0  0  0  0  0  0  0  0  0  0  0
   42.2530   41.1620   29.8900 C   0  0  0  0  0  0  0  0  0  0  0  0
   41.0370   37.3390   26.6410 C   0  0  0  0  0  0  0  0  0  0  0  0
   43.6190   35.4750   34.4890 C   0  0  0  0  0  0  0  0  0  0  0  0
   42.0010   35.9090   28.1880 O   0  0  0  0  0  0  0  0  0  0  0  0
   43.9410   37.6680   28.9460 O   0  0  0  0  0  0  0  0  0  0  0  0
   41.4520   34.8260   31.0770 F   0  0  0  0  0  0  0  0  0  0  0  0
   41.6880   39.2540   29.2200 C   0  0  0  0  0  0  0  0  0  0  0  0
   42.7690   35.5760   33.2520 N   0  0  0  0  0  0  0  0  0  0  0  0
   43.4700   35.9180   30.9050 C   0  0  0  0  0  0  0  0  0  0  0  0
   41.8170   33.5710   32.5260 O   0  0  0  0  0  0  0  0  0  0  0  0
   42.4470   39.9290   29.9640 C   0  0  0  0  0  0  0  0  0  0  0  0
   43.9520   36.8610   34.9620 C   0  0  0  0  0  0  0  0  0  0  0  0
   42.6800   36.9510   28.7700 C   0  0  0  0  0  0  0  0  0  0  0  0
   39.3550   39.7680   28.5750 O   0  0  0  0  0  0  0  0  0  0  0  0
   43.2360   36.5610   32.2350 C   0  0  0  0  0  0  0  0  0  0  0  0
   44.8320   34.6290   34.1790 C   0  0  0  0  0  0  0  0  0  0  0  0
   40.7880   37.7840   27.5020 N   0  0  0  0  0  0  0  0  0  0  0  0
   42.3560   37.7430   32.0440 O   0  0  0  0  0  0  0  0  0  0  0  0
   42.8940   36.3400   30.2370 C   0  0  0  0  0  0  0  0  0  0  0  0
   41.5190   37.8190   28.7890 C   0  0  0  0  0  0  0  0  0  0  0  0
   40.9130   41.3230   29.2460 N   0  0  0  0  0  0  0  0  0  0  0  0
   41.8940   34.5920   32.3060 C   0  0  0  0  0  0  0  0  0  0  0  0
  1  8  1  0
  1 22  1  0
  2 12  1  0
  3 18  2  0
  4 13  1  0
  5 14  1  0
  7 23  1  0
  8 21  1  0
  8 12  1  0
  9  4  1  0
 10 16  1  0
 14 21  1  0
 14  6  1  0
 14 20  1  0
 15  1  2  0
 16 19  1  0
 16  9  1  0
 17  4  1  0
 20 10  1  0
 21 18  1  0
 22  2  1  0
 23 11  2  0
 23  9  1  0
M  END
$$$$

     RDKit          3D

 11 12  0  0  0  0  0  0  0  0999 V2000
   42.3080   36.8050   29.8450 C   0  0  0  0  0  0  0  0  0  0  0  0
   43.7650   38.1700   31.7180 C   0  0  0  0  0  0  0  0  0  0  0  0
   42.8020   38.8840   31.2130 N   0  0  0  0  0  0  0  0  0  0  0  0
   41.9130   38.1020   30.3350 C   0  0  0  0  0  0  0  0  0  0  0  0
   43.1850   36.0240   30.5100 N   0  0  0  0  0  0  0  0  0  0  0  0
   45.1030   37.0590   33.3670 C   0  0  0  0  0  0  0  0  0  0  0  0
   41.6500   36.1130   28.7220 S   0  0  0  0  0  0  0  0  0  0  0  0
   43.6770   36.5620   31.5150 C   0  0  0  0  0  0  0  0  0  0  0  0
   40.8390   38.6050   30.1060 O   0  0  0  0  0  0  0  0  0  0  0  0
   44.3980   36.0010   32.4880 N   0  0  0  0  0  0  0  0  0  0  0  0
   44.5910   38.3270   32.8490 C   0  0  0  0  0  0  0  0  0  0  0  0
  1  4  1  0
  1  5  1  0
  2 11  1  0
  3  2  1  0
  4  3  1  0
  5  8  2  0
  7  1  2  0
  8  2  1  0
  8 10  1  0
  9  4  2  0
 10  6  1  0
 11  6  2  0
M  END
$$$$

     RDKit          3D

 10 10  0  0  0  0  0  0  0  0999 V2000
   45.4560   36.4840   32.7380 O   0  0  0  0  0  0  0  0  0  0  0  0
   43.5030   38.1520   31.6960 C   0  0  0  0  0  0  0  0  0  0  0  0
   42.8380   37.1240   32.4280 O   0  0  0  0  0  0  0  0  0  0  0  0
   44.7930   37.7270   32.7960 P   0  0  0  0  0  0  0  0  0  0  0  0
   44.5140   38.0260   34.4280 O   0  0  0  0  0  0  0  0  0  0  0  0
   42.9450   38.1980   30.2680 C   0  0  0  0  0  0  0  0  0  0  0  0
   41.9650   37.4910   29.7110 O   0  0  0  0  0  0  0  0  0  0  0  0
   43.3040   38.9750   29.3960 O   0  0  0  0  0  0  0  0  0  0  0  0
   41.4080   36.5690   30.7810 C   0  0  0  0  0  0  0  0  0  0  0  0
   42.4760   35.9760   31.6070 C   0  0  0  0  0  0  0  0  0  0  0  0
  1  4  1  0
  2  3  1  0
  2  4  1  0
  4  5  1  0
  6  2  1  0
  7  6  1  0
  7  9  1  0
  8  6  2  0
  9 10  1  0
 10  3  1  0
M  END
$$$$

     RDKit          3D

 20 21  0  0  0  0  0  0  0  0999 V2000
   40.4790   41.6260   28.0610 C   0  0  0  0  0  0  0  0  0  0  0  0
   42.5100   35.8680   31.1810 C   0  0  0  0  0  0  0  0  0  0  0  0
   40.3500   33.2900   32.6630 O   0  0  0  0  0  0  0  0  0  0  0  0
   42.4880   37.2710   31.9170 C   0  0  0  0  0  0  0  0  0  0  0  0
   44.3790   35.6750   32.4640 C   0  0  0  0  0  0  0  0  0  0  0  0
   41.9030   37.2550   29.3640 N   0  0  0  0  0  0  0  0  0  0  0  0
   46.6220   37.7470   32.3730 C   0  0  0  0  0  0  0  0  0  0  0  0
   41.4120   37.8470   28.0220 C   0  0  0  0  0  0  0  0  0  0  0  0
   41.7320   40.3120   29.8740 C   0  0  0  0  0  0  0  0  0  0  0  0
   42.6060   37.8590   33.2900 O   0  0  0  0  0  0  0  0  0  0  0  0
   41.5940   35.2970   32.1700 N   0  0  0  0  0  0  0  0  0  0  0  0
   42.2310   39.3980   30.6270 N   0  0  0  0  0  0  0  0  0  0  0  0
   43.8710   36.9870   31.6750 C   0  0  0  0  0  0  0  0  0  0  0  0
   44.9630   38.2910   32.0580 S   0  0  0  0  0  0  0  0  0  0  0  0
   41.4760   33.8100   32.6470 C   0  0  0  0  0  0  0  0  0  0  0  0
   42.2190   38.1100   30.5650 C   0  0  0  0  0  0  0  0  0  0  0  0
   41.0850   40.2960   28.6100 C   0  0  0  0  0  0  0  0  0  0  0  0
   40.9250   39.1490   27.8270 C   0  0  0  0  0  0  0  0  0  0  0  0
   41.3570   36.9180   27.0430 N   0  0  0  0  0  0  0  0  0  0  0  0
   42.5010   33.2750   32.8810 O   0  0  0  0  0  0  0  0  0  0  0  0
  1 17  1  0
  2 13  1  0
  2  4  1  0
  2 11  1  0
  4 10  1  0
  6 16  2  0
  8 19  1  0
  8  6  1  0
  9 12  2  0
 11 15  1  0
 13  4  1  0
 13 14  1  0
 13  5  1  0
 14  7  1  0
 15  3  2  0
 15 20  1  0
 16 12  1  0
 16  4  1  0
 17  9  1  0
 18  8  1  0
 18 17  2  0
M  END
$$$$
