
     RDKit          3D

 27 29  0  0  0  0  0  0  0  0999 V2000
   43.4290   36.6630   31.1260 C   0  0  0  0  0  0  0  0  0  0  0  0
   39.4360   41.0900   26.0760 C   0  0  0  0  0  0  0  0  0  0  0  0
   42.8690   39.7600   26.5160 N   0  0  0  0  0  0  0  0  0  0  0  0
   40.6460   36.3450   28.6430 O   0  0  0  0  0  0  0  0  0  0  0  0
   41.6390   38.2010   29.6580 C   0  0  0  0  0  0  0  0  0  0  0  0
   42.5860   38.3490   26.5320 C   0  0  0  0  0  0  0  0  0  0  0  0
   39.2090   39.5130   26.4110 C   0  0  0  0  0  0  0  0  0  0  0  0
   40.8300   41.5560   26.3630 C   0  0  0  0  0  0  0  0  0  0  0  0
   45.4530   37.9860   32.1500 C   0  0  0  0  0  0  0  0  0  0  0  0
   43.9470   37.4050   32.3310 C   0  0  0  0  0  0  0  0  0  0  0  0
   42.1160   40.8540   25.9240 C   0  0  0  0  0  0  0  0  0  0  0  0
   45.9040   38.1270   33.4990 O   0  0  0  0  0  0  0  0  0  0  0  0
   40.9710   41.6790   27.7760 O   0  0  0  0  0  0  0  0  0  0  0  0
   41.3380   38.0300   27.0200 C   0  0  0  0  0  0  0  0  0  0  0  0
   40.1280   38.3350   26.1870 C   0  0  0  0  0  0  0  0  0  0  0  0
   42.0350   36.3740   31.0420 C   0  0  0  0  0  0  0  0  0  0  0  0
   42.1290   42.4230   24.3060 O   0  0  0  0  0  0  0  0  0  0  0  0
   41.6550   34.6790   30.9900 C   0  0  0  0  0  0  0  0  0  0  0  0
   42.8010   37.8120   25.1790 O   0  0  0  0  0  0  0  0  0  0  0  0
   42.9860   38.8180   32.6090 C   0  0  0  0  0  0  0  0  0  0  0  0
   41.1280   37.2050   30.7000 C   0  0  0  0  0  0  0  0  0  0  0  0
   41.2420   37.5500   28.3410 C   0  0  0  0  0  0  0  0  0  0  0  0
   40.1410   36.3640   29.9800 C   0  0  0  0  0  0  0  0  0  0  0  0
   44.0740   35.8470   32.0660 N   0  0  0  0  0  0  0  0  0  0  0  0
   42.7690   41.2870   24.7230 O   0  0  0  0  0  0  0  0  0  0  0  0
   43.7790   37.7210   26.9980 N   0  0  0  0  0  0  0  0  0  0  0  0
   43.2780   36.4050   27.0570 C   0  0  0  0  0  0  0  0  0  0  0  0
  1 16  1  0
  1 24  1  0
  1 10  1  0
  2  8  1  0
  2  7  1  0
  3  6  1  0
  4 23  1  0
  5 21  1  0
  6 19  1  0
  6 26  1  0
  6 14  1  0
  8 13  1  0
  9 10  1  0
  9 12  1  0
 10 20  1  0
 11  8  1  0
 11  3  2  0
 14 15  1  0
 14 22  1  0
 15  7  1  0
 16 18  1  0
 17 25  1  0
 21 16  1  0
 22  4  1  0
 22  5  1  0
 23 21  1  0
 24 10  1  0
 25 11  1  0
 26 27  1  0
M  END
$$$$

     RDKit          3D

 19 19  0  0  0  0  0  0  0  0999 V2000
   38.8290   39.8600   25.7120 C   0  0  0  0  0  0  0  0  0  0  0  0
   44.1950   38.1570   28.0050 O   0  0  0  0  0  0  0  0  0  0  0  0
   43.8260   37.0440   31.2400 C   0  0  0  0  0  0  0  0  0  0  0  0
   42.6280   39.6830   27.8700 O   0  0  0  0  0  0  0  0  0  0  0  0
   41.8180   37.6530   28.8100 C   0  0  0  0  0  0  0  0  0  0  0  0
   39.4030   38.8080   25.2800 N   0  0  0  0  0  0  0  0  0  0  0  0
   40.7080   36.9660   26.3700 O   0  0  0  0  0  0  0  0  0  0  0  0
   36.6310   41.6950   25.5360 C   0  0  0  0  0  0  0  0  0  0  0  0
   43.4880   36.3270   29.9710 C   0  0  0  0  0  0  0  0  0  0  0  0
   39.3700   39.9740   26.9260 C   0  0  0  0  0  0  0  0  0  0  0  0
   40.1530   38.1570   26.2610 C   0  0  0  0  0  0  0  0  0  0  0  0
   42.9530   38.5560   28.2290 C   0  0  0  0  0  0  0  0  0  0  0  0
   40.0920   38.8550   27.3820 C   0  0  0  0  0  0  0  0  0  0  0  0
   37.0340   40.0280   25.5950 S   0  0  0  0  0  0  0  0  0  0  0  0
   41.1480   36.1240   30.6090 C   0  0  0  0  0  0  0  0  0  0  0  0
   42.1230   36.6030   29.6340 N   0  0  0  0  0  0  0  0  0  0  0  0
   40.4290   38.2430   28.6970 C   0  0  0  0  0  0  0  0  0  0  0  0
   36.3870   39.7830   26.8770 O   0  0  0  0  0  0  0  0  0  0  0  0
   36.4920   39.3320   24.4050 O   0  0  0  0  0  0  0  0  0  0  0  0
  1 14  1  0
  1 10  1  0
  2 12  1  0
  4 12  2  0
  5 17  1  0
  5 16  1  0
  6  1  1  0
  6 11  1  0
  8 14  1  0
  9  3  1  0
 10 13  1  0
 11  7  2  0
 11 13  1  0
 12  5  1  0
 13 17  1  0
 14 18  2  0
 16  9  1  0
 16 15  1  0
 19 14  2  0
M  END
$$$$

     RDKit          3D

 15 16  0  0  0  0  0  0  0  0999 V2000
   39.0730   40.7040   27.1090 C   0  0  0  0  0  0  0  0  0  0  0  0
   43.3450   39.0380   27.2070 O   0  0  0  0  0  0  0  0  0  0  0  0
   41.4540   36.5700   27.7750 O   0  0  0  0  0  0  0  0  0  0  0  0
   44.7150   37.2850   27.9740 C   0  0  0  0  0  0  0  0  0  0  0  0
   40.4310   41.1150   26.6030 C   0  0  0  0  0  0  0  0  0  0  0  0
   41.5320   34.9560   31.4080 C   0  0  0  0  0  0  0  0  0  0  0  0
   42.3760   39.1190   26.8160 C   0  0  0  0  0  0  0  0  0  0  0  0
   42.2930   37.0560   28.5820 C   0  0  0  0  0  0  0  0  0  0  0  0
   41.0840   39.2970   27.5740 C   0  0  0  0  0  0  0  0  0  0  0  0
   42.1380   36.7480   29.8830 N   0  0  0  0  0  0  0  0  0  0  0  0
   43.5290   37.9710   28.5330 C   0  0  0  0  0  0  0  0  0  0  0  0
   40.9630   36.0660   30.4840 C   0  0  0  0  0  0  0  0  0  0  0  0
   39.8940   39.5730   26.6750 C   0  0  0  0  0  0  0  0  0  0  0  0
   43.8610   38.2820   29.9650 C   0  0  0  0  0  0  0  0  0  0  0  0
   42.6580   37.8200   30.7660 C   0  0  0  0  0  0  0  0  0  0  0  0
  2 11  1  0
  3  8  2  0
  5 13  1  0
  5  1  1  0
  7  2  1  0
  7  9  1  0
  8 10  1  0
 10 12  1  0
 10 15  1  0
 11  4  1  0
 11  8  1  0
 11 14  1  0
 12  6  1  0
 13  1  1  0
 13  9  1  0
 14 15  1  0
M  END
$$$$

     RDKit          3D

  8  8  0  0  0  0  0  0  0  0999 V2000
   41.0310   37.3610   27.5090 C   0  0  0  0  0  0  0  0  0  0  0  0
   42.0290   39.1790   28.1500 N   0  0  0  0  0  0  0  0  0  0  0  0
   40.4620   40.8980   27.2000 C   0  0  0  0  0  0  0  0  0  0  0  0
   40.8470   36.2590   27.0360 O   0  0  0  0  0  0  0  0  0  0  0  0
   43.1200   36.9160   28.7160 N   0  0  0  0  0  0  0  0  0  0  0  0
   42.1610   37.7860   28.1930 C   0  0  0  0  0  0  0  0  0  0  0  0
   40.3270   38.4240   27.1580 N   0  0  0  0  0  0  0  0  0  0  0  0
   40.9630   39.5430   27.5210 C   0  0  0  0  0  0  0  0  0  0  0  0
  1  6  1  0
  2  6  1  0
  3  8  1  0
  4  1  2  0
  6  5  1  0
  7  1  1  0
  7  8  1  0
  8  2  2  0
M  END
$$$$

     RDKit          3D

 11 11  0  0  0  0  0  0  0  0999 V2000
   46.7810   37.3110   31.1550 Br  0  0  0  0  0  0  0  0  0  0  0  0
   41.1720   37.0200   29.2230 N   0  0  0  0  0  0  0  0  0  0  0  0
   43.2000   38.7040   27.5180 Cl  0  0  0  0  0  0  0  0  0  0  0  0
   42.4820   37.1330   29.6300 C   0  0  0  0  0  0  0  0  0  0  0  0
   44.2400   36.4180   31.1840 N   0  0  0  0  0  0  0  0  0  0  0  0
   43.3910   37.9840   29.0240 C   0  0  0  0  0  0  0  0  0  0  0  0
   42.0580   35.3520   31.3800 C   0  0  0  0  0  0  0  0  0  0  0  0
   44.6020   38.2350   29.6130 C   0  0  0  0  0  0  0  0  0  0  0  0
   42.9570   36.3370   30.7330 C   0  0  0  0  0  0  0  0  0  0  0  0
   45.5140   39.5590   29.1380 Cl  0  0  0  0  0  0  0  0  0  0  0  0
   45.1030   37.3260   30.6480 C   0  0  0  0  0  0  0  0  0  0  0  0
  2  4  1  0
  3  6  1  0
  4  9  1  0
  6  8  1  0
  6  4  2  0
  8 11  2  0
  9  5  2  0
  9  7  1  0
 10  8  1  0
 11  1  1  0
 11  5  1  0
M  END
$$$$

     RDKit          3D

  6  5  0  0  0  0  0  0  0  0999 V2000
   44.9010   37.7880   29.6080 C   0  0  0  0  0  0  0  0  0  0  0  0
   43.3780   38.7610   28.8080 N   0  0  0  0  0  0  0  0  0  0  0  0
   40.8740   37.3210   30.4320 N   0  0  0  0  0  0  0  0  0  0  0  0
   43.7120   36.9480   30.1040 C   0  0  0  0  0  0  0  0  0  0  0  0
   41.1930   37.6980   29.0010 C   0  0  0  0  0  0  0  0  0  0  0  0
   42.7270   37.5870   28.7790 C   0  0  0  0  0  0  0  0  0  0  0  0
  1  4  1  0
  5  3  1  0
  6  2  1  0
  6  5  1  0
  6  4  1  0
M  END
$$$$

     RDKit          3D

 15 14  0  0  0  0  0  0  0  0999 V2000
   37.7180   40.4980   26.5710 C   0  0  0  0  0  0  0  0  0  0  0  0
   43.0180   36.4470   29.1710 N   0  0  0  0  0  0  0  0  0  0  0  0
   41.4000   35.7060   31.0560 C   0  0  0  0  0  0  0  0  0  0  0  0
   36.4840   41.3060   26.6570 C   0  0  0  0  0  0  0  0  0  0  0  0
   40.7940   38.1940   29.0040 C   0  0  0  0  0  0  0  0  0  0  0  0
   41.2540   37.6460   29.8860 N   0  0  0  0  0  0  0  0  0  0  0  0
   40.6690   38.9740   26.6640 C   0  0  0  0  0  0  0  0  0  0  0  0
   40.2830   41.4320   26.2920 C   0  0  0  0  0  0  0  0  0  0  0  0
   41.1940   37.7370   27.4950 P   0  0  0  0  0  0  0  0  0  0  0  0
   39.9350   35.6340   31.1170 O   0  0  0  0  0  0  0  0  0  0  0  0
   41.8380   36.3280   29.7030 C   0  0  0  0  0  0  0  0  0  0  0  0
   38.8520   41.1740   25.8350 C   0  0  0  0  0  0  0  0  0  0  0  0
   40.7430   40.2510   26.9530 C   0  0  0  0  0  0  0  0  0  0  0  0
   40.5090   36.6160   27.0860 O   0  0  0  0  0  0  0  0  0  0  0  0
   42.6040   37.7970   27.3790 O   0  0  0  0  0  0  0  0  0  0  0  0
  1  4  1  0
  3 10  1  0
  5  6  1  0
  7 13  2  3
  7  9  1  0
  8 13  1  0
  9 14  2  0
  9  5  1  0
 11  2  1  0
 11  6  1  0
 11  3  1  0
 12  8  1  0
 12  1  1  0
 15  9  1  0
M  END
$$$$

     RDKit          3D

  6  5  0  0  0  0  0  0  0  0999 V2000
   41.6490   35.8590   30.5260 N   0  0  0  0  0  0  0  0  0  0  0  0
   41.7480   37.8800   29.3950 C   0  0  0  0  0  0  0  0  0  0  0  0
   42.2610   37.6840   27.9620 C   0  0  0  0  0  0  0  0  0  0  0  0
   40.8150   36.7270   29.7030 C   0  0  0  0  0  0  0  0  0  0  0  0
   40.9670   34.6250   30.8970 C   0  0  0  0  0  0  0  0  0  0  0  0
   41.1010   37.1940   27.2230 O   0  0  0  0  0  0  0  0  0  0  0  0
  1  5  1  0
  2  4  1  0
  3  2  1  0
  4  1  1  0
  6  3  1  0
M  END
$$$$

     RDKit          3D

 15 15  0  0  0  0  0  0  0  0999 V2000
   43.3740   36.2280   31.1590 C   0  0  0  0  0  0  0  0  0  0  0  0
   43.1060   36.5860   29.6290 C   0  0  0  0  0  0  0  0  0  0  0  0
   43.3750   38.6080   31.6660 O   0  0  0  0  0  0  0  0  0  0  0  0
   41.1280   34.7270   31.1160 C   0  0  0  0  0  0  0  0  0  0  0  0
   43.5100   39.8860   32.6170 O   0  0  0  0  0  0  0  0  0  0  0  0
   41.5480   36.5600   29.4160 C   0  0  0  0  0  0  0  0  0  0  0  0
   44.4950   38.6300   30.4830 P   0  0  0  0  0  0  0  0  0  0  0  0
   40.6670   38.5820   28.8080 C   0  0  0  0  0  0  0  0  0  0  0  0
   44.9860   40.2090   30.4370 O   0  0  0  0  0  0  0  0  0  0  0  0
   44.5930   37.3690   28.1190 O   0  0  0  0  0  0  0  0  0  0  0  0
   41.6500   38.6050   27.6880 O   0  0  0  0  0  0  0  0  0  0  0  0
   45.8330   38.2170   30.7520 O   0  0  0  0  0  0  0  0  0  0  0  0
   41.1300   37.3010   28.1820 C   0  0  0  0  0  0  0  0  0  0  0  0
   43.6900   37.9170   29.0360 C   0  0  0  0  0  0  0  0  0  0  0  0
   42.1360   35.6160   31.8650 C   0  0  0  0  0  0  0  0  0  0  0  0
  1 15  1  0
  2  6  1  0
  2  1  1  0
  3  5  1  0
  4 15  1  0
  7  9  2  0
  7 12  1  0
  7  3  1  0
 11 13  1  0
 11  8  1  0
 13  8  1  0
 13  6  1  0
 14 10  1  0
 14  2  1  0
 14  7  1  0
M  END
$$$$

     RDKit          3D

 22 24  0  0  0  0  0  0  0  0999 V2000
   40.3270   41.1270   26.5820 C   0  0  0  0  0  0  0  0  0  0  0  0
   39.1250   41.8270   26.4880 C   0  0  0  0  0  0  0  0  0  0  0  0
   41.9220   39.0790   26.4520 C   0  0  0  0  0  0  0  0  0  0  0  0
   36.8330   39.0670   25.6300 N   0  0  0  0  0  0  0  0  0  0  0  0
   42.7860   35.9540   30.7060 C   0  0  0  0  0  0  0  0  0  0  0  0
   42.8160   38.2640   27.4510 C   0  0  0  0  0  0  0  0  0  0  0  0
   38.0530   39.7180   26.0800 C   0  0  0  0  0  0  0  0  0  0  0  0
   39.2720   39.0170   26.2730 C   0  0  0  0  0  0  0  0  0  0  0  0
   42.3160   36.8970   28.1000 C   0  0  0  0  0  0  0  0  0  0  0  0
   42.9360   40.2050   26.3770 O   0  0  0  0  0  0  0  0  0  0  0  0
   43.4530   36.6870   31.8780 C   0  0  0  0  0  0  0  0  0  0  0  0
   43.4330   39.0920   31.9050 O   0  0  0  0  0  0  0  0  0  0  0  0
   43.0370   39.0370   28.6930 O   0  0  0  0  0  0  0  0  0  0  0  0
   40.5220   39.7870   26.4880 C   0  0  0  0  0  0  0  0  0  0  0  0
   41.0580   36.5660   27.3880 O   0  0  0  0  0  0  0  0  0  0  0  0
   44.7350   36.0660   32.1340 O   0  0  0  0  0  0  0  0  0  0  0  0
   41.3040   35.7110   31.1010 C   0  0  0  0  0  0  0  0  0  0  0  0
   43.4970   38.0940   31.3380 C   0  0  0  0  0  0  0  0  0  0  0  0
   37.9660   41.1170   26.2220 C   0  0  0  0  0  0  0  0  0  0  0  0
   41.2400   34.3930   31.8860 C   0  0  0  0  0  0  0  0  0  0  0  0
   43.3990   38.1070   29.7900 C   0  0  0  0  0  0  0  0  0  0  0  0
   42.5990   36.9170   29.5750 N   0  0  0  0  0  0  0  0  0  0  0  0
  2  1  2  0
  3 10  1  0
  3 14  1  0
  4  7  1  0
  5 17  1  0
  5 11  1  0
  6  3  1  0
  6  9  1  0
  6 13  1  0
  7 19  2  0
  7  8  1  0
  8 14  2  0
  9 15  1  0
  9 22  1  0
 11 16  1  0
 14  1  1  0
 17 20  1  0
 18 11  1  0
 18 12  2  0
 19  2  1  0
 21 13  1  0
 21 18  1  0
 22 21  1  0
 22  5  1  0
M  END
$$$$

     RDKit          3D

 16 15  0  0  0  0  0  0  0  0999 V2000
   44.3090   37.2040   27.3470 C   0  0  0  0  0  0  0  0  0  0  0  0
   40.7750   40.9280   27.6140 C   0  0  0  0  0  0  0  0  0  0  0  0
   40.5940   38.7590   26.6590 O   0  0  0  0  0  0  0  0  0  0  0  0
   46.1440   37.0130   29.6170 N   0  0  0  0  0  0  0  0  0  0  0  0
   41.3160   37.1440   28.8400 C   0  0  0  0  0  0  0  0  0  0  0  0
   40.9630   39.3990   27.6000 C   0  0  0  0  0  0  0  0  0  0  0  0
   41.5530   36.5130   30.1880 C   0  0  0  0  0  0  0  0  0  0  0  0
   44.1530   37.9870   28.4640 C   0  0  0  0  0  0  0  0  0  0  0  0
   41.6210   38.6620   28.7880 C   0  0  0  0  0  0  0  0  0  0  0  0
   40.5590   35.5160   30.6970 C   0  0  0  0  0  0  0  0  0  0  0  0
   41.0720   36.4750   27.8720 O   0  0  0  0  0  0  0  0  0  0  0  0
   45.1700   37.9410   29.6020 C   0  0  0  0  0  0  0  0  0  0  0  0
   40.4910   41.5020   26.2180 C   0  0  0  0  0  0  0  0  0  0  0  0
   43.1060   38.8720   28.7050 N   0  0  0  0  0  0  0  0  0  0  0  0
   42.5210   36.8150   30.9110 O   0  0  0  0  0  0  0  0  0  0  0  0
   44.9350   38.7490   30.5230 O   0  0  0  0  0  0  0  0  0  0  0  0
  1  8  2  0
  3  6  2  0
  5  7  1  0
  6  2  1  0
  7 10  1  0
  7 15  2  0
  8 14  1  0
  8 12  1  0
  9  6  1  0
  9  5  1  0
 11  5  2  0
 12  4  1  0
 12 16  2  0
 13  2  1  0
 14  9  1  0
M  END
$$$$

     RDKit          3D

 15 15  0  0  0  0  0  0  0  0999 V2000
   40.6920   38.9960   27.8330 C   0  0  0  0  0  0  0  0  0  0  0  0
   43.7660   38.0460   27.7860 C   0  0  0  0  0  0  0  0  0  0  0  0
   43.0420   37.4980   29.0200 C   0  0  0  0  0  0  0  0  0  0  0  0
   40.2680   36.5210   26.9880 O   0  0  0  0  0  0  0  0  0  0  0  0
   36.7030   40.8980   26.1800 C   0  0  0  0  0  0  0  0  0  0  0  0
   40.1980   39.2820   26.3700 N   0  0  0  0  0  0  0  0  0  0  0  0
   40.7250   36.5690   29.7330 N   0  0  0  0  0  0  0  0  0  0  0  0
   43.4560   37.1560   30.0940 O   0  0  0  0  0  0  0  0  0  0  0  0
   43.1700   39.1180   25.5720 O   0  0  0  0  0  0  0  0  0  0  0  0
   41.2100   37.2340   28.3970 P   0  0  0  0  0  0  0  0  0  0  0  0
   42.7780   38.5920   26.8340 C   0  0  0  0  0  0  0  0  0  0  0  0
   38.8200   39.3840   26.0350 C   0  0  0  0  0  0  0  0  0  0  0  0
   42.0110   39.5340   27.6300 O   0  0  0  0  0  0  0  0  0  0  0  0
   38.1460   40.6350   27.2250 S   0  0  0  0  0  0  0  0  0  0  0  0
   44.9690   38.6880   28.2460 O   0  0  0  0  0  0  0  0  0  0  0  0
  1  6  1  0
  1 10  1  0
  2 15  1  0
  2  3  1  0
  3  8  2  0
  5 14  1  0
 10  4  2  0
 10  3  1  0
 10  7  1  0
 11  9  1  0
 11 13  1  0
 11  2  1  0
 12  6  1  0
 12 14  1  0
 13  1  1  0
M  END
$$$$

     RDKit          3D

 11 13  0  0  0  0  0  0  0  0999 V2000
   42.6770   38.0590   29.3720 C   0  0  0  0  0  0  0  0  0  0  0  0
   41.6650   37.2780   30.0090 O   0  0  0  0  0  0  0  0  0  0  0  0
   40.5760   36.9090   29.0380 C   0  0  0  0  0  0  0  0  0  0  0  0
   42.4380   37.1540   27.6650 C   0  0  0  0  0  0  0  0  0  0  0  0
   43.6750   39.0810   30.0700 C   0  0  0  0  0  0  0  0  0  0  0  0
   44.3370   36.4100   29.8000 C   0  0  0  0  0  0  0  0  0  0  0  0
   43.9580   38.4220   31.3540 C   0  0  0  0  0  0  0  0  0  0  0  0
   43.7480   37.2820   28.6240 C   0  0  0  0  0  0  0  0  0  0  0  0
   40.9990   36.4790   27.7580 C   0  0  0  0  0  0  0  0  0  0  0  0
   42.1500   38.5420   27.3660 O   0  0  0  0  0  0  0  0  0  0  0  0
   44.6450   37.1310   31.1800 N   0  0  0  0  0  0  0  0  0  0  0  0
  1  2  1  0
  1  5  1  0
  3  2  1  0
  4 10  1  0
  4  9  1  0
  4  8  1  0
  4  1  1  0
  5  7  1  0
  6 11  1  0
  8  1  1  0
  8  6  1  0
  9  3  1  0
 11  7  1  0
M  END
$$$$

     RDKit          3D

 12 12  0  0  0  0  0  0  0  0999 V2000
   40.7470   36.0410   29.5570 O   0  0  0  0  0  0  0  0  0  0  0  0
   43.0400   40.7780   27.8540 O   0  0  0  0  0  0  0  0  0  0  0  0
   44.4570   37.9380   28.1970 C   0  0  0  0  0  0  0  0  0  0  0  0
   42.9040   37.2490   30.0780 C   0  0  0  0  0  0  0  0  0  0  0  0
   42.3800   38.6780   29.7260 O   0  0  0  0  0  0  0  0  0  0  0  0
   42.6220   39.4870   28.4710 C   0  0  0  0  0  0  0  0  0  0  0  0
   45.6720   38.9130   28.0530 C   0  0  0  0  0  0  0  0  0  0  0  0
   43.2200   38.5160   27.4850 C   0  0  0  0  0  0  0  0  0  0  0  0
   46.9180   38.5980   28.7700 O   0  0  0  0  0  0  0  0  0  0  0  0
   42.0670   34.9670   31.2050 C   0  0  0  0  0  0  0  0  0  0  0  0
   41.7480   36.1860   30.2660 C   0  0  0  0  0  0  0  0  0  0  0  0
   44.3910   37.1690   29.5720 O   0  0  0  0  0  0  0  0  0  0  0  0
  1 11  2  0
  2  6  2  0
  3  7  1  0
  3 12  1  0
  4 11  1  0
  5  4  1  0
  6  5  1  0
  7  9  1  0
  8  3  1  0
  8  6  1  0
 11 10  1  0
 12  4  1  0
M  END
$$$$

     RDKit          3D

 12 13  0  0  0  0  0  0  0  0999 V2000
   45.2710   36.3100   31.7840 O   0  0  0  0  0  0  0  0  0  0  0  0
   41.7180   38.5860   29.3720 C   0  0  0  0  0  0  0  0  0  0  0  0
   43.7330   37.1500   28.9470 C   0  0  0  0  0  0  0  0  0  0  0  0
   43.2860   38.5570   29.5860 C   0  0  0  0  0  0  0  0  0  0  0  0
   43.5820   37.4280   30.4440 C   0  0  0  0  0  0  0  0  0  0  0  0
   44.9870   37.3160   31.0880 C   0  0  0  0  0  0  0  0  0  0  0  0
   42.8020   38.5970   27.1440 O   0  0  0  0  0  0  0  0  0  0  0  0
   41.9990   39.4720   28.0980 C   0  0  0  0  0  0  0  0  0  0  0  0
   45.8440   38.1980   30.8360 O   0  0  0  0  0  0  0  0  0  0  0  0
   40.3140   36.5400   28.4430 O   0  0  0  0  0  0  0  0  0  0  0  0
   43.7990   37.4270   27.1430 C   0  0  0  0  0  0  0  0  0  0  0  0
   41.2060   37.1510   29.0460 C   0  0  0  0  0  0  0  0  0  0  0  0
  2 12  1  0
  2  4  1  0
  3 11  1  0
  3  4  1  0
  3  5  1  0
  4  5  1  0
  5  6  1  0
  6  1  1  0
  7  8  1  0
  8  2  1  0
  9  6  2  0
 10 12  2  0
 11  7  1  0
M  END
$$$$

     RDKit          3D

  7  7  0  0  0  0  0  0  0  0999 V2000
   40.6020   37.1870   27.0210 C   0  0  0  0  0  0  0  0  0  0  0  0
   40.7480   39.5110   26.2270 C   0  0  0  0  0  0  0  0  0  0  0  0
   41.1740   36.2520   29.1730 N   0  0  0  0  0  0  0  0  0  0  0  0
   40.3910   38.1640   25.9960 C   0  0  0  0  0  0  0  0  0  0  0  0
   41.3280   39.9770   27.4470 C   0  0  0  0  0  0  0  0  0  0  0  0
   41.0740   37.5570   28.2760 C   0  0  0  0  0  0  0  0  0  0  0  0
   41.3670   39.0380   28.4950 C   0  0  0  0  0  0  0  0  0  0  0  0
  1  6  1  0
  2  5  2  0
  4  2  1  0
  4  1  2  0
  5  7  1  0
  6  7  2  0
  6  3  1  0
M  END
$$$$

     RDKit          3D

 16 17  0  0  0  0  0  0  0  0999 V2000
   43.6380   38.7200   28.1940 O   0  0  0  0  0  0  0  0  0  0  0  0
   42.0170   37.6180   29.8470 C   0  0  0  0  0  0  0  0  0  0  0  0
   39.1350   39.3290   27.4820 C   0  0  0  0  0  0  0  0  0  0  0  0
   44.2140   36.8570   29.5850 C   0  0  0  0  0  0  0  0  0  0  0  0
   42.2120   36.4280   30.7730 C   0  0  0  0  0  0  0  0  0  0  0  0
   40.3210   38.9370   28.1170 C   0  0  0  0  0  0  0  0  0  0  0  0
   41.1430   35.3870   31.1520 C   0  0  0  0  0  0  0  0  0  0  0  0
   39.4100   36.8000   24.7260 N   0  0  0  0  0  0  0  0  0  0  0  0
   40.2570   36.9280   26.8470 N   0  0  0  0  0  0  0  0  0  0  0  0
   41.5430   36.9470   28.5890 N   0  0  0  0  0  0  0  0  0  0  0  0
   40.7620   37.6030   27.8370 C   0  0  0  0  0  0  0  0  0  0  0  0
   37.7210   39.0150   25.1580 C   0  0  0  0  0  0  0  0  0  0  0  0
   43.3520   38.1410   29.4880 C   0  0  0  0  0  0  0  0  0  0  0  0
   39.5300   37.4610   25.8790 C   0  0  0  0  0  0  0  0  0  0  0  0
   38.8580   38.7280   26.1400 C   0  0  0  0  0  0  0  0  0  0  0  0
   43.4930   35.8170   30.3300 N   0  0  0  0  0  0  0  0  0  0  0  0
  2 10  1  0
  2  5  1  0
  3  6  1  0
  4 16  1  0
  5  7  1  0
  9 11  2  0
 11  6  1  0
 11 10  1  0
 13  1  1  0
 13  4  1  0
 13  2  1  0
 14  8  1  0
 14 15  1  0
 14  9  1  0
 15 12  1  0
 15  3  1  0
 16  5  1  0
M  END
$$$$

     RDKit          3D

 16 16  0  0  0  0  0  0  0  0999 V2000
   42.8040   35.4150   30.5220 N   0  0  0  0  0  0  0  0  0  0  0  0
   42.7650   37.8180   28.8790 C   0  0  0  0  0  0  0  0  0  0  0  0
   39.3270   38.8910   25.6460 C   0  0  0  0  0  0  0  0  0  0  0  0
   38.1570   40.9100   26.2320 C   0  0  0  0  0  0  0  0  0  0  0  0
   40.6930   36.6180   29.9070 C   0  0  0  0  0  0  0  0  0  0  0  0
   40.6750   36.7720   26.9620 O   0  0  0  0  0  0  0  0  0  0  0  0
   41.6070   37.8580   29.8700 C   0  0  0  0  0  0  0  0  0  0  0  0
   41.0490   37.9560   27.1800 C   0  0  0  0  0  0  0  0  0  0  0  0
   41.3830   35.4550   30.6200 C   0  0  0  0  0  0  0  0  0  0  0  0
   40.1410   40.3560   27.4540 C   0  0  0  0  0  0  0  0  0  0  0  0
   36.9950   41.7720   26.0130 N   0  0  0  0  0  0  0  0  0  0  0  0
   38.3070   39.7590   25.4240 C   0  0  0  0  0  0  0  0  0  0  0  0
   39.0550   41.2680   27.2160 C   0  0  0  0  0  0  0  0  0  0  0  0
   40.7440   34.7720   31.5070 C   0  0  0  0  0  0  0  0  0  0  0  0
   42.2070   38.3860   27.7160 N   0  0  0  0  0  0  0  0  0  0  0  0
   40.3340   39.0670   26.8360 C   0  0  0  0  0  0  0  0  0  0  0  0
  1  9  1  0
  2  7  1  0
  3 16  1  0
  4 13  2  0
  5  9  1  0
  6  8  2  0
  7  5  1  0
  8 15  1  0
  9 14  2  0
 11  4  1  0
 12  3  2  0
 12  4  1  0
 13 10  1  0
 15  2  1  0
 16  8  1  0
 16 10  2  0
M  END
$$$$

     RDKit          3D

 22 22  0  0  0  0  0  0  0  0999 V2000
   41.5710   37.9550   27.8000 N   0  0  0  0  0  0  0  0  0  0  0  0
   40.9550   34.8890   31.6030 C   0  0  0  0  0  0  0  0  0  0  0  0
   35.5850   39.0980   24.7500 N   0  0  0  0  0  0  0  0  0  0  0  0
   37.9810   40.6370   25.9380 C   0  0  0  0  0  0  0  0  0  0  0  0
   45.1500   35.6490   31.8150 N   0  0  0  0  0  0  0  0  0  0  0  0
   45.1990   36.6510   29.6940 N   0  0  0  0  0  0  0  0  0  0  0  0
   43.5120   38.4200   29.0520 O   0  0  0  0  0  0  0  0  0  0  0  0
   42.4640   37.6640   28.8980 C   0  0  0  0  0  0  0  0  0  0  0  0
   42.3680   35.1760   31.5340 N   0  0  0  0  0  0  0  0  0  0  0  0
   43.0300   36.0610   30.6320 C   0  0  0  0  0  0  0  0  0  0  0  0
   44.4600   36.1740   30.6940 C   0  0  0  0  0  0  0  0  0  0  0  0
   42.1220   36.6810   29.7450 C   0  0  0  0  0  0  0  0  0  0  0  0
   38.8430   39.8750   25.1460 C   0  0  0  0  0  0  0  0  0  0  0  0
   41.1400   38.4670   24.8260 Cl  0  0  0  0  0  0  0  0  0  0  0  0
   34.6070   41.2140   25.1260 O   0  0  0  0  0  0  0  0  0  0  0  0
   39.4500   40.5280   27.8140 C   0  0  0  0  0  0  0  0  0  0  0  0
   38.2860   40.9370   27.2580 C   0  0  0  0  0  0  0  0  0  0  0  0
   41.3980   39.4030   27.7000 C   0  0  0  0  0  0  0  0  0  0  0  0
   40.0280   39.4540   25.7290 C   0  0  0  0  0  0  0  0  0  0  0  0
   40.3550   39.7740   27.0720 C   0  0  0  0  0  0  0  0  0  0  0  0
   35.5950   40.4930   25.0870 C   0  0  0  0  0  0  0  0  0  0  0  0
   36.7190   41.1560   25.4480 C   0  0  0  0  0  0  0  0  0  0  0  0
  1  8  1  0
  3 21  1  0
  4 17  1  0
  6 11  2  0
  8  7  2  0
  8 12  1  0
  9  2  1  0
 10 11  1  0
 10  9  1  0
 11  5  1  0
 12 10  2  3
 13 19  1  0
 13  4  2  0
 14 19  1  0
 17 16  2  0
 18  1  1  0
 19 20  2  0
 20 18  1  0
 20 16  1  0
 21 15  2  0
 21 22  1  0
 22  4  1  0
M  END
$$$$

     RDKit          3D

  6  5  0  0  0  0  0  0  0  0999 V2000
   41.5040   37.9990   29.3340 C   0  0  0  0  0  0  0  0  0  0  0  0
   44.3110   37.1540   29.4230 N   0  0  0  0  0  0  0  0  0  0  0  0
   42.5540   38.8490   28.6330 C   0  0  0  0  0  0  0  0  0  0  0  0
   40.4160   36.5850   27.6510 O   0  0  0  0  0  0  0  0  0  0  0  0
   43.8310   38.1080   28.2270 C   0  0  0  0  0  0  0  0  0  0  0  0
   41.3710   36.5940   28.7530 C   0  0  0  0  0  0  0  0  0  0  0  0
  3  1  1  0
  4  6  1  0
  5  3  1  0
  5  2  1  0
  6  1  1  0
M  END
$$$$
