
     RDKit          3D

 17 17  0  0  0  0  0  0  0  0999 V2000
   41.9400   41.3910   27.5790 O   0  0  0  0  0  0  0  0  0  0  0  0
   42.4000   41.1650   25.3550 O   0  0  0  0  0  0  0  0  0  0  0  0
   38.7010   39.2300   27.0540 N   0  0  0  0  0  0  0  0  0  0  0  0
   36.6400   40.8550   24.3860 O   0  0  0  0  0  0  0  0  0  0  0  0
   40.2710   38.9230   29.4490 C   0  0  0  0  0  0  0  0  0  0  0  0
   37.6210   41.8190   26.2800 C   0  0  0  0  0  0  0  0  0  0  0  0
   39.6020   42.3180   27.1340 O   0  0  0  0  0  0  0  0  0  0  0  0
   38.8790   40.2760   27.9060 C   0  0  0  0  0  0  0  0  0  0  0  0
   41.7070   41.5280   26.3540 C   0  0  0  0  0  0  0  0  0  0  0  0
   41.5090   38.6710   29.7170 N   0  0  0  0  0  0  0  0  0  0  0  0
   36.4950   42.6240   26.6020 O   0  0  0  0  0  0  0  0  0  0  0  0
   37.1440   40.5520   25.7040 C   0  0  0  0  0  0  0  0  0  0  0  0
   40.3680   42.0830   25.9940 C   0  0  0  0  0  0  0  0  0  0  0  0
   39.4110   37.7430   29.6490 C   0  0  0  0  0  0  0  0  0  0  0  0
   38.2100   39.4410   25.8060 C   0  0  0  0  0  0  0  0  0  0  0  0
   38.4190   41.5790   27.4880 C   0  0  0  0  0  0  0  0  0  0  0  0
   39.5790   40.0900   28.9950 N   0  0  0  0  0  0  0  0  0  0  0  0
  2  9  2  0
  3  8  2  0
  5 14  1  0
  5 10  2  0
  6 11  1  0
  6 16  1  0
  8 17  1  0
  9  1  1  0
 12  4  1  0
 12 15  1  0
 12  6  1  0
 13  9  1  0
 13  7  1  0
 15  3  1  0
 16  7  1  0
 16  8  1  0
 17  5  1  0
M  END
$$$$

     RDKit          3D

 14 13  0  0  0  0  0  0  0  0999 V2000
   37.4520   42.3200   26.6530 C   0  0  0  0  0  0  0  0  0  0  0  0
   37.9940   41.3040   27.0960 C   0  0  0  0  0  0  0  0  0  0  0  0
   39.9840   36.8520   30.1690 C   0  0  0  0  0  0  0  0  0  0  0  0
   40.3530   39.1500   29.8090 C   0  0  0  0  0  0  0  0  0  0  0  0
   38.7270   40.1250   27.6540 C   0  0  0  0  0  0  0  0  0  0  0  0
   39.4480   40.0550   29.0200 N   0  0  0  0  0  0  0  0  0  0  0  0
   42.2490   40.2140   28.6160 O   0  0  0  0  0  0  0  0  0  0  0  0
   38.2780   43.6220   26.8360 C   0  0  0  0  0  0  0  0  0  0  0  0
   40.7160   39.2240   31.2570 N   0  0  0  0  0  0  0  0  0  0  0  0
   41.4120   41.3960   28.1370 C   0  0  0  0  0  0  0  0  0  0  0  0
   40.3730   37.8540   29.4540 C   0  0  0  0  0  0  0  0  0  0  0  0
   39.4710   43.1710   27.3550 N   0  0  0  0  0  0  0  0  0  0  0  0
   38.5140   38.9620   27.1550 O   0  0  0  0  0  0  0  0  0  0  0  0
   40.1200   42.0350   27.8150 C   0  0  0  0  0  0  0  0  0  0  0  0
  1  8  1  0
  1  2  1  0
  2  5  1  0
  4  9  2  0
  5  6  1  0
  6  4  1  0
  8 12  1  0
 10  7  1  0
 11  4  1  0
 11  3  2  0
 12 14  2  3
 13  5  2  0
 14 10  1  0
M  END
$$$$

     RDKit          3D

 22 24  0  0  0  0  0  0  0  0999 V2000
   37.6910   38.9580   28.3150 C   0  0  0  0  0  0  0  0  0  0  0  0
   38.2740   38.9890   25.6030 S   0  0  0  0  0  0  0  0  0  0  0  0
   42.2780   40.0740   29.3960 N   0  0  0  0  0  0  0  0  0  0  0  0
   43.4910   41.8680   29.5250 N   0  0  0  0  0  0  0  0  0  0  0  0
   41.0030   41.5400   32.0590 O   0  0  0  0  0  0  0  0  0  0  0  0
   38.2570   39.8580   27.1780 C   0  0  0  0  0  0  0  0  0  0  0  0
   40.0130   36.8030   30.0810 N   0  0  0  0  0  0  0  0  0  0  0  0
   43.3730   40.6200   29.2400 C   0  0  0  0  0  0  0  0  0  0  0  0
   40.4900   38.0520   30.4130 C   0  0  0  0  0  0  0  0  0  0  0  0
   39.4250   40.7150   27.5040 C   0  0  0  0  0  0  0  0  0  0  0  0
   43.2550   42.7050   28.2870 C   0  0  0  0  0  0  0  0  0  0  0  0
   39.6800   39.0020   29.7830 N   0  0  0  0  0  0  0  0  0  0  0  0
   41.3980   38.8420   31.1060 N   0  0  0  0  0  0  0  0  0  0  0  0
   37.7670   41.2410   27.0820 C   0  0  0  0  0  0  0  0  0  0  0  0
   43.2620   42.9160   31.4540 O   0  0  0  0  0  0  0  0  0  0  0  0
   42.1050   39.9520   30.6040 C   0  0  0  0  0  0  0  0  0  0  0  0
   42.9420   41.9770   30.7260 C   0  0  0  0  0  0  0  0  0  0  0  0
   41.9900   41.1670   31.2360 C   0  0  0  0  0  0  0  0  0  0  0  0
   41.8110   43.1540   28.1860 C   0  0  0  0  0  0  0  0  0  0  0  0
   38.9520   36.9280   29.0890 N   0  0  0  0  0  0  0  0  0  0  0  0
   44.1430   43.9400   28.1840 C   0  0  0  0  0  0  0  0  0  0  0  0
   38.7750   38.2920   28.9790 C   0  0  0  0  0  0  0  0  0  0  0  0
  1 22  1  0
  2  6  1  0
  3 16  2  0
  4 17  1  0
  6 10  1  0
  6  1  1  0
  7  9  2  0
  8  3  1  0
  8  4  1  0
  9 13  1  0
 11  4  1  0
 12  9  2  0
 14  6  1  0
 14 10  1  0
 16 13  1  0
 16 18  1  0
 17 18  1  0
 17 15  2  0
 18  5  1  0
 19 11  1  0
 20  7  1  0
 21 11  1  0
 22 20  1  0
 22 12  2  0
M  END
$$$$

     RDKit          3D

 14 15  0  0  0  0  0  0  0  0999 V2000
   38.6170   43.7180   27.1930 C   0  0  0  0  0  0  0  0  0  0  0  0
   39.6750   38.6200   29.1650 C   0  0  0  0  0  0  0  0  0  0  0  0
   38.6150   38.6400   28.1190 N   0  0  0  0  0  0  0  0  0  0  0  0
   39.6850   41.5010   27.6070 C   0  0  0  0  0  0  0  0  0  0  0  0
   40.5670   39.8880   29.3670 C   0  0  0  0  0  0  0  0  0  0  0  0
   38.6420   38.8910   25.8630 O   0  0  0  0  0  0  0  0  0  0  0  0
   39.6910   42.9190   27.7080 C   0  0  0  0  0  0  0  0  0  0  0  0
   40.7600   40.7420   28.1910 O   0  0  0  0  0  0  0  0  0  0  0  0
   39.8720   37.3400   30.0900 C   0  0  0  0  0  0  0  0  0  0  0  0
   36.7100   44.2760   26.5410 N   0  0  0  0  0  0  0  0  0  0  0  0
   37.3540   41.8060   26.7260 C   0  0  0  0  0  0  0  0  0  0  0  0
   37.4610   43.1970   26.8130 C   0  0  0  0  0  0  0  0  0  0  0  0
   38.4840   40.9800   27.0850 C   0  0  0  0  0  0  0  0  0  0  0  0
   38.6340   39.4880   26.9180 C   0  0  0  0  0  0  0  0  0  0  0  0
  1  7  1  0
  2  5  1  0
  2  9  1  0
  3  2  1  0
  4  7  2  0
  4  8  1  0
  6 14  2  0
  8  5  1  0
 10 12  1  0
 11 12  1  0
 11 13  2  0
 12  1  2  0
 13  4  1  0
 14 13  1  0
 14  3  1  0
M  END
$$$$

     RDKit          3D

 20 20  0  0  0  0  0  0  0  0999 V2000
   32.7070   38.6780   30.3750 C   0  0  0  0  0  0  0  0  0  0  0  0
   38.3150   38.0360   30.1640 N   0  0  0  0  0  0  0  0  0  0  0  0
   36.8420   39.9140   26.1070 C   0  0  0  0  0  0  0  0  0  0  0  0
   31.2070   39.7130   32.0830 C   0  0  0  0  0  0  0  0  0  0  0  0
   40.5670   36.4140   30.2010 O   0  0  0  0  0  0  0  0  0  0  0  0
   39.0580   38.6870   28.9300 C   0  0  0  0  0  0  0  0  0  0  0  0
   41.1880   38.8350   30.0050 N   0  0  0  0  0  0  0  0  0  0  0  0
   39.9420   39.5730   29.6530 C   0  0  0  0  0  0  0  0  0  0  0  0
   40.8380   37.4860   30.1740 C   0  0  0  0  0  0  0  0  0  0  0  0
   34.0350   40.0320   28.3290 C   0  0  0  0  0  0  0  0  0  0  0  0
   31.8190   38.4250   31.5730 C   0  0  0  0  0  0  0  0  0  0  0  0
   31.9570   39.3460   27.0570 C   0  0  0  0  0  0  0  0  0  0  0  0
   32.5100   39.9090   28.3620 C   0  0  0  0  0  0  0  0  0  0  0  0
   35.9770   40.2870   27.1080 C   0  0  0  0  0  0  0  0  0  0  0  0
   34.6210   40.7950   27.1630 C   0  0  0  0  0  0  0  0  0  0  0  0
   38.0980   39.4720   26.6150 C   0  0  0  0  0  0  0  0  0  0  0  0
   38.1520   39.2980   28.0190 C   0  0  0  0  0  0  0  0  0  0  0  0
   36.7880   40.2180   28.6210 S   0  0  0  0  0  0  0  0  0  0  0  0
   32.0860   40.1920   33.1930 N   0  0  0  0  0  0  0  0  0  0  0  0
   31.8380   39.6390   29.5750 C   0  0  0  0  0  0  0  0  0  0  0  0
  1 11  1  0
  3 16  1  0
  3 14  1  0
  4 19  1  0
  6  8  1  0
  6  2  1  0
  7  9  1  0
  8  7  1  0
  9  5  1  0
 10 13  1  0
 11  4  1  0
 13 12  1  0
 13 20  1  0
 14 15  1  0
 14 18  1  0
 15 10  1  0
 16 17  1  0
 17 18  1  0
 17  6  1  0
 20  1  1  0
M  END
$$$$

     RDKit          3D

 10 10  0  0  0  0  0  0  0  0999 V2000
   38.7860   41.3960   27.7060 C   0  0  0  0  0  0  0  0  0  0  0  0
   38.4440   39.3710   26.2190 C   0  0  0  0  0  0  0  0  0  0  0  0
   38.9310   38.9390   28.5820 C   0  0  0  0  0  0  0  0  0  0  0  0
   38.8440   38.3450   27.2220 N   0  0  0  0  0  0  0  0  0  0  0  0
   41.7430   41.4650   28.3250 O   0  0  0  0  0  0  0  0  0  0  0  0
   37.7800   40.5060   26.9720 C   0  0  0  0  0  0  0  0  0  0  0  0
   39.5610   40.3080   28.3910 C   0  0  0  0  0  0  0  0  0  0  0  0
   39.5130   42.1480   26.7420 O   0  0  0  0  0  0  0  0  0  0  0  0
   37.0970   41.3380   26.0150 O   0  0  0  0  0  0  0  0  0  0  0  0
   40.9080   40.4670   28.9430 C   0  0  0  0  0  0  0  0  0  0  0  0
  1  8  1  0
  1  7  1  0
  2  6  1  0
  2  4  1  0
  4  3  1  0
  5 10  1  0
  6  9  1  0
  6  1  1  0
  7  3  1  0
  7 10  1  0
M  END
$$$$

     RDKit          3D

  7  6  0  0  0  0  0  0  0  0999 V2000
   41.8060   40.9130   28.9450 C   0  0  0  0  0  0  0  0  0  0  0  0
   40.4360   38.1420   30.0600 C   0  0  0  0  0  0  0  0  0  0  0  0
   40.4190   40.5930   29.4390 C   0  0  0  0  0  0  0  0  0  0  0  0
   39.8570   36.9120   29.7260 N   0  0  0  0  0  0  0  0  0  0  0  0
   41.9990   41.3680   27.5960 C   0  0  0  0  0  0  0  0  0  0  0  0
   42.7280   40.7270   29.6900 O   0  0  0  0  0  0  0  0  0  0  0  0
   40.0960   39.1820   29.0040 C   0  0  0  0  0  0  0  0  0  0  0  0
  1  3  1  0
  1  6  2  0
  4  2  1  0
  5  1  1  0
  7  3  1  0
  7  2  1  0
M  END
$$$$

     RDKit          3D

 10 10  0  0  0  0  0  0  0  0999 V2000
   39.7840   38.7120   29.6340 C   0  0  0  0  0  0  0  0  0  0  0  0
   39.4860   40.5580   27.9930 C   0  0  0  0  0  0  0  0  0  0  0  0
   40.0220   37.2030   29.4310 C   0  0  0  0  0  0  0  0  0  0  0  0
   38.9450   39.1220   28.4800 O   0  0  0  0  0  0  0  0  0  0  0  0
   41.0980   39.5180   29.6940 C   0  0  0  0  0  0  0  0  0  0  0  0
   39.8590   40.5240   26.6660 O   0  0  0  0  0  0  0  0  0  0  0  0
   40.9460   40.5540   28.6810 C   0  0  0  0  0  0  0  0  0  0  0  0
   41.5110   41.6320   28.6300 O   0  0  0  0  0  0  0  0  0  0  0  0
   40.9410   40.2050   31.0750 O   0  0  0  0  0  0  0  0  0  0  0  0
   42.2950   38.8690   30.0270 O   0  0  0  0  0  0  0  0  0  0  0  0
  1  3  1  0
  1  5  1  0
  2  6  1  0
  2  4  1  0
  2  7  1  0
  4  1  1  0
  5 10  1  0
  5  9  1  0
  7  5  1  0
  8  7  2  0
M  END
$$$$

     RDKit          3D

 15 15  0  0  0  0  0  0  0  0999 V2000
   38.0840   39.8070   26.8410 C   0  0  0  0  0  0  0  0  0  0  0  0
   38.4980   41.1840   26.3770 C   0  0  0  0  0  0  0  0  0  0  0  0
   37.7910   41.8240   27.8610 C   0  0  0  0  0  0  0  0  0  0  0  0
   40.4620   39.8490   25.4390 C   0  0  0  0  0  0  0  0  0  0  0  0
   42.1070   40.0180   29.1860 S   0  0  0  0  0  0  0  0  0  0  0  0
   40.2600   41.5700   28.9820 O   0  0  0  0  0  0  0  0  0  0  0  0
   39.2660   41.5980   23.8450 S   0  0  0  0  0  0  0  0  0  0  0  0
   38.0700   38.8690   25.7420 O   0  0  0  0  0  0  0  0  0  0  0  0
   39.4000   40.7630   25.1820 C   0  0  0  0  0  0  0  0  0  0  0  0
   40.2110   36.8760   30.2210 C   0  0  0  0  0  0  0  0  0  0  0  0
   39.6060   39.1890   29.1600 N   0  0  0  0  0  0  0  0  0  0  0  0
   40.9190   38.9770   29.5770 C   0  0  0  0  0  0  0  0  0  0  0  0
   41.2220   37.8490   30.3570 N   0  0  0  0  0  0  0  0  0  0  0  0
   39.1320   39.5910   27.8380 C   0  0  0  0  0  0  0  0  0  0  0  0
   39.0820   41.3200   28.3540 C   0  0  0  0  0  0  0  0  0  0  0  0
  1  8  1  0
  1 14  1  0
  2  9  1  0
  2  1  1  0
  2  3  1  0
  3 15  1  0
  5 12  2  0
  7  9  2  0
  9  4  1  0
 10 13  1  0
 11 12  1  0
 12 13  1  0
 14 15  1  0
 14 11  1  0
 15  6  1  0
M  END
$$$$

     RDKit          3D

 15 16  0  0  0  0  0  0  0  0999 V2000
   39.5210   38.0700   29.2280 C   0  0  0  0  0  0  0  0  0  0  0  0
   38.8660   38.2850   28.0260 N   0  0  0  0  0  0  0  0  0  0  0  0
   37.6780   42.7810   26.7190 N   0  0  0  0  0  0  0  0  0  0  0  0
   38.0130   39.7520   25.5440 O   0  0  0  0  0  0  0  0  0  0  0  0
   38.8530   40.4560   26.5320 C   0  0  0  0  0  0  0  0  0  0  0  0
   40.1350   40.1420   28.6620 C   0  0  0  0  0  0  0  0  0  0  0  0
   37.6970   43.8930   26.8110 O   0  0  0  0  0  0  0  0  0  0  0  0
   36.5760   42.5150   26.5140 O   0  0  0  0  0  0  0  0  0  0  0  0
   39.5270   36.8640   30.1040 C   0  0  0  0  0  0  0  0  0  0  0  0
   40.6360   41.2610   28.6550 C   0  0  0  0  0  0  0  0  0  0  0  0
   41.3770   39.1870   30.5680 C   0  0  0  0  0  0  0  0  0  0  0  0
   40.4010   39.1390   29.5720 N   0  0  0  0  0  0  0  0  0  0  0  0
   38.8190   41.8830   26.9570 C   0  0  0  0  0  0  0  0  0  0  0  0
   39.8400   42.2930   27.7480 C   0  0  0  0  0  0  0  0  0  0  0  0
   39.1180   39.6440   27.6900 C   0  0  0  0  0  0  0  0  0  0  0  0
  1 12  1  0
  1  9  1  0
  2  1  2  0
  3  7  2  0
  5  4  1  0
  5 13  1  0
  5 15  1  0
  6 12  1  0
  8  3  2  0
 10  6  1  0
 12 11  1  0
 13  3  1  0
 13 14  1  0
 14 10  1  0
 15  2  1  0
 15  6  2  0
M  END
$$$$

     RDKit          3D

 11 10  0  0  0  0  0  0  0  0999 V2000
   41.2090   41.6530   28.4050 O   0  0  0  0  0  0  0  0  0  0  0  0
   40.3570   40.7020   28.2630 C   0  0  0  0  0  0  0  0  0  0  0  0
   36.9530   42.8700   26.8040 S   0  0  0  0  0  0  0  0  0  0  0  0
   39.2400   40.9800   27.4380 N   0  0  0  0  0  0  0  0  0  0  0  0
   39.1080   43.2500   24.1400 N   0  0  0  0  0  0  0  0  0  0  0  0
   39.3520   41.5540   25.9780 C   0  0  0  0  0  0  0  0  0  0  0  0
   38.4020   42.7910   25.6210 C   0  0  0  0  0  0  0  0  0  0  0  0
   40.6160   39.4270   28.8850 N   0  0  0  0  0  0  0  0  0  0  0  0
   39.8670   37.2660   29.8620 C   0  0  0  0  0  0  0  0  0  0  0  0
   38.5970   38.4540   28.0250 O   0  0  0  0  0  0  0  0  0  0  0  0
   39.6410   38.4020   28.9210 C   0  0  0  0  0  0  0  0  0  0  0  0
  2  1  2  0
  2  8  1  0
  4  2  1  0
  5  7  1  0
  6  4  1  0
  7  6  1  0
  7  3  2  0
  8 11  1  0
 10 11  2  0
 11  9  1  0
M  END
$$$$

     RDKit          3D

 18 19  0  0  0  0  0  0  0  0999 V2000
   34.1910   42.9050   25.1210 C   0  0  0  0  0  0  0  0  0  0  0  0
   41.7020   41.7310   28.3800 O   0  0  0  0  0  0  0  0  0  0  0  0
   36.6870   41.9740   26.4020 O   0  0  0  0  0  0  0  0  0  0  0  0
   37.8930   41.1330   26.2820 C   0  0  0  0  0  0  0  0  0  0  0  0
   39.8980   40.3510   26.6650 C   0  0  0  0  0  0  0  0  0  0  0  0
   39.0800   41.5350   28.3240 O   0  0  0  0  0  0  0  0  0  0  0  0
   40.6940   39.8370   30.7990 O   0  0  0  0  0  0  0  0  0  0  0  0
   33.1780   40.8360   26.0680 C   0  0  0  0  0  0  0  0  0  0  0  0
   35.5070   41.1980   26.1300 O   0  0  0  0  0  0  0  0  0  0  0  0
   40.7860   39.4490   28.5600 N   0  0  0  0  0  0  0  0  0  0  0  0
   41.3700   39.3230   29.8550 C   0  0  0  0  0  0  0  0  0  0  0  0
   33.5450   39.8060   25.1630 O   0  0  0  0  0  0  0  0  0  0  0  0
   39.1190   39.1790   26.1060 C   0  0  0  0  0  0  0  0  0  0  0  0
   34.2600   41.8630   26.2110 C   0  0  0  0  0  0  0  0  0  0  0  0
   38.9140   41.4850   26.8570 C   0  0  0  0  0  0  0  0  0  0  0  0
   37.7770   39.7120   25.9640 O   0  0  0  0  0  0  0  0  0  0  0  0
   42.4190   38.5130   29.8620 C   0  0  0  0  0  0  0  0  0  0  0  0
   40.4320   41.0030   28.1960 P   0  0  0  0  0  0  0  0  0  0  0  0
  4  3  1  0
  4 15  1  0
  5 13  1  0
  5 15  1  0
  5 18  1  0
  8 14  1  0
  9 14  1  0
  9  3  1  0
 10 11  1  0
 11 17  1  0
 11  7  2  0
 12  8  1  0
 14  1  1  0
 15  6  1  0
 16 13  1  0
 16  4  1  0
 18  6  1  0
 18  2  2  0
 18 10  1  0
M  END
$$$$

     RDKit          3D

 18 19  0  0  0  0  0  0  0  0999 V2000
   38.8690   39.7770   23.4310 C   0  0  0  0  0  0  0  0  0  0  0  0
   38.9400   39.2930   21.1150 F   0  0  0  0  0  0  0  0  0  0  0  0
   37.7170   41.7770   27.2020 C   0  0  0  0  0  0  0  0  0  0  0  0
   39.6860   41.6610   26.4640 O   0  0  0  0  0  0  0  0  0  0  0  0
   38.5550   39.6200   26.0190 C   0  0  0  0  0  0  0  0  0  0  0  0
   42.2940   40.1350   29.3460 C   0  0  0  0  0  0  0  0  0  0  0  0
   38.2740   39.4160   22.2040 C   0  0  0  0  0  0  0  0  0  0  0  0
   39.5520   39.0480   29.0540 C   0  0  0  0  0  0  0  0  0  0  0  0
   38.0360   39.7250   24.5180 C   0  0  0  0  0  0  0  0  0  0  0  0
   39.8810   40.3570   28.3350 C   0  0  0  0  0  0  0  0  0  0  0  0
   41.4430   40.2680   28.0190 C   0  0  0  0  0  0  0  0  0  0  0  0
   36.0910   39.0750   23.2230 C   0  0  0  0  0  0  0  0  0  0  0  0
   36.9510   39.0130   22.0890 C   0  0  0  0  0  0  0  0  0  0  0  0
   38.9130   40.7620   27.0890 C   0  0  0  0  0  0  0  0  0  0  0  0
   38.3960   38.4030   26.3550 O   0  0  0  0  0  0  0  0  0  0  0  0
   36.6680   39.3840   24.4510 C   0  0  0  0  0  0  0  0  0  0  0  0
   41.6900   38.9540   30.1600 C   0  0  0  0  0  0  0  0  0  0  0  0
   40.2140   39.1430   30.3790 N   0  0  0  0  0  0  0  0  0  0  0  0
  1  9  1  0
  2  7  1  0
  4 14  1  0
  5 15  2  0
  5 14  1  0
  6 17  1  0
  7  1  2  0
  8 18  1  0
  9  5  1  0
 10 14  1  0
 10  8  1  0
 11 10  1  0
 11  6  1  0
 12 16  1  0
 13  7  1  0
 13 12  2  0
 14  3  1  0
 16  9  2  0
 17 18  1  0
M  END
$$$$

     RDKit          3D

 20 20  0  0  0  0  0  0  0  0999 V2000
   40.6360   40.7040   29.0170 C   0  0  0  0  0  0  0  0  0  0  0  0
   34.7770   41.4440   26.0530 C   0  0  0  0  0  0  0  0  0  0  0  0
   39.1480   38.9310   28.2610 C   0  0  0  0  0  0  0  0  0  0  0  0
   38.7930   38.5310   27.1240 O   0  0  0  0  0  0  0  0  0  0  0  0
   33.1910   41.7590   26.3540 C   0  0  0  0  0  0  0  0  0  0  0  0
   37.7300   41.2480   26.8260 C   0  0  0  0  0  0  0  0  0  0  0  0
   39.1920   40.4170   28.6980 C   0  0  0  0  0  0  0  0  0  0  0  0
   39.7980   42.1420   25.2820 C   0  0  0  0  0  0  0  0  0  0  0  0
   42.9310   39.9610   29.1870 C   0  0  0  0  0  0  0  0  0  0  0  0
   37.0670   40.2440   26.1850 C   0  0  0  0  0  0  0  0  0  0  0  0
   39.5100   37.9850   29.1440 N   0  0  0  0  0  0  0  0  0  0  0  0
   40.0760   41.6020   26.6770 C   0  0  0  0  0  0  0  0  0  0  0  0
   36.9270   42.4430   26.6950 C   0  0  0  0  0  0  0  0  0  0  0  0
   40.9310   41.8470   29.3400 O   0  0  0  0  0  0  0  0  0  0  0  0
   36.3130   39.6510   25.4560 C   0  0  0  0  0  0  0  0  0  0  0  0
   41.6260   39.6920   28.9640 C   0  0  0  0  0  0  0  0  0  0  0  0
   35.5660   42.5230   26.5020 C   0  0  0  0  0  0  0  0  0  0  0  0
   38.9380   41.2580   27.4950 N   0  0  0  0  0  0  0  0  0  0  0  0
   34.9810   40.2530   25.4910 C   0  0  0  0  0  0  0  0  0  0  0  0
   39.3230   41.1210   24.4450 O   0  0  0  0  0  0  0  0  0  0  0  0
  1 14  2  0
  2  5  1  0
  2 17  1  0
  3 11  1  0
  4  3  2  0
  6 18  1  0
  7  3  1  0
  7  1  1  0
  8 12  1  0
 10  6  1  0
 12 18  1  0
 13  6  1  0
 15 19  1  0
 15 10  1  0
 16  1  1  0
 16  9  2  0
 17 13  1  0
 18  7  1  0
 19  2  2  0
 20  8  1  0
M  END
$$$$

     RDKit          3D

 11 11  0  0  0  0  0  0  0  0999 V2000
   38.7780   39.7170   28.6120 C   0  0  0  0  0  0  0  0  0  0  0  0
   42.8410   41.3960   28.9080 O   0  0  0  0  0  0  0  0  0  0  0  0
   41.5000   40.8260   28.8230 C   0  0  0  0  0  0  0  0  0  0  0  0
   39.7500   38.9810   29.3580 C   0  0  0  0  0  0  0  0  0  0  0  0
   39.5030   37.5510   29.8940 C   0  0  0  0  0  0  0  0  0  0  0  0
   40.4910   41.4870   27.9990 C   0  0  0  0  0  0  0  0  0  0  0  0
   41.1220   39.5970   29.5870 C   0  0  0  0  0  0  0  0  0  0  0  0
   39.1700   40.9350   27.9840 C   0  0  0  0  0  0  0  0  0  0  0  0
   39.5680   43.5490   26.8390 C   0  0  0  0  0  0  0  0  0  0  0  0
   41.9250   38.9610   30.3960 O   0  0  0  0  0  0  0  0  0  0  0  0
   40.8460   42.7090   27.1150 C   0  0  0  0  0  0  0  0  0  0  0  0
  1  4  1  0
  3  2  1  0
  3  7  1  0
  4  7  2  0
  4  5  1  0
  6  3  2  0
  7 10  1  0
  8  6  1  0
  8  1  2  0
  9 11  1  0
 11  6  1  0
M  END
$$$$

     RDKit          3D

  7  6  0  0  0  0  0  0  0  0999 V2000
   39.5940   38.2610   29.1800 C   0  0  0  0  0  0  0  0  0  0  0  0
   42.4650   40.0250   29.6000 C   0  0  0  0  0  0  0  0  0  0  0  0
   40.3020   40.5920   28.6550 N   0  0  0  0  0  0  0  0  0  0  0  0
   39.7320   39.6890   29.7140 C   0  0  0  0  0  0  0  0  0  0  0  0
   41.6410   41.1880   29.0120 C   0  0  0  0  0  0  0  0  0  0  0  0
   39.5330   37.2150   30.2890 C   0  0  0  0  0  0  0  0  0  0  0  0
   39.3380   41.4570   27.9140 C   0  0  0  0  0  0  0  0  0  0  0  0
  1  4  1  0
  1  6  1  0
  3  5  1  0
  3  4  1  0
  5  2  1  0
  7  3  1  0
M  END
$$$$

     RDKit          3D

 21 20  0  0  0  0  0  0  0  0999 V2000
   35.9850   42.4510   24.8490 O   0  0  0  0  0  0  0  0  0  0  0  0
   39.5550   40.4280   25.6540 O   0  0  0  0  0  0  0  0  0  0  0  0
   33.5030   41.8940   26.0480 C   0  0  0  0  0  0  0  0  0  0  0  0
   38.3880   40.3450   26.6770 S   0  0  0  0  0  0  0  0  0  0  0  0
   41.4810   38.2840   29.9660 N   0  0  0  0  0  0  0  0  0  0  0  0
   40.7790   41.2510   27.5170 O   0  0  0  0  0  0  0  0  0  0  0  0
   39.4610   37.4250   29.2450 O   0  0  0  0  0  0  0  0  0  0  0  0
   43.6960   39.9490   28.9990 C   0  0  0  0  0  0  0  0  0  0  0  0
   41.1370   39.5230   29.4150 C   0  0  0  0  0  0  0  0  0  0  0  0
   42.2590   40.4240   28.8320 C   0  0  0  0  0  0  0  0  0  0  0  0
   39.9570   40.0860   29.3600 N   0  0  0  0  0  0  0  0  0  0  0  0
   36.4690   41.5490   27.2110 C   0  0  0  0  0  0  0  0  0  0  0  0
   32.6570   42.3230   26.0940 C   0  0  0  0  0  0  0  0  0  0  0  0
   37.0630   40.7780   26.1480 N   0  0  0  0  0  0  0  0  0  0  0  0
   35.3190   41.1430   24.6860 C   0  0  0  0  0  0  0  0  0  0  0  0
   34.4650   40.9330   25.8670 O   0  0  0  0  0  0  0  0  0  0  0  0
   40.5280   37.2720   30.1540 C   0  0  0  0  0  0  0  0  0  0  0  0
   39.9120   41.0870   28.3630 C   0  0  0  0  0  0  0  0  0  0  0  0
   36.3860   40.2350   24.9850 C   0  0  0  0  0  0  0  0  0  0  0  0
   38.6940   41.3610   27.8870 N   0  0  0  0  0  0  0  0  0  0  0  0
   38.1820   38.8180   27.0640 O   0  0  0  0  0  0  0  0  0  0  0  0
  2  4  2  0
  3 13  3  0
  4 21  2  0
  4 20  1  0
  5 17  1  0
  6 18  2  0
  7 17  1  0
  9  5  1  0
 10  8  1  0
 10  9  2  3
 11  9  1  0
 14  4  1  0
 14 12  1  0
 15  1  1  0
 15 19  1  0
 15 16  1  0
 16  3  1  0
 18 11  1  0
 19 14  1  0
 20 18  1  0
M  END
$$$$

     RDKit          3D

 10 10  0  0  0  0  0  0  0  0999 V2000
   41.9860   42.3720   27.0730 O   0  0  0  0  0  0  0  0  0  0  0  0
   41.8160   40.9450   30.4970 C   0  0  0  0  0  0  0  0  0  0  0  0
   41.9730   41.6140   31.7830 O   0  0  0  0  0  0  0  0  0  0  0  0
   41.9410   41.5400   28.0390 C   0  0  0  0  0  0  0  0  0  0  0  0
   42.1000   41.8490   29.3500 N   0  0  0  0  0  0  0  0  0  0  0  0
   41.7890   40.2460   27.8200 N   0  0  0  0  0  0  0  0  0  0  0  0
   40.2290   39.1060   29.4400 C   0  0  0  0  0  0  0  0  0  0  0  0
   40.3900   40.3710   30.4090 C   0  0  0  0  0  0  0  0  0  0  0  0
   39.1660   38.0230   29.0300 N   0  0  0  0  0  0  0  0  0  0  0  0
   40.8100   39.4140   28.0410 C   0  0  0  0  0  0  0  0  0  0  0  0
  1  4  2  0
  2  3  1  0
  4  5  1  0
  5  2  1  0
  6  4  1  0
  6 10  1  0
  7  9  1  0
  7  8  1  0
  8  2  1  0
 10  7  1  0
M  END
$$$$

     RDKit          3D

 14 14  0  0  0  0  0  0  0  0999 V2000
   37.6180   40.6410   23.9760 O   0  0  0  0  0  0  0  0  0  0  0  0
   37.5360   40.8700   27.4460 C   0  0  0  0  0  0  0  0  0  0  0  0
   41.7900   38.6310   29.9180 C   0  0  0  0  0  0  0  0  0  0  0  0
   39.7200   40.0140   29.8030 C   0  0  0  0  0  0  0  0  0  0  0  0
   39.0360   38.6560   27.8190 N   0  0  0  0  0  0  0  0  0  0  0  0
   36.9400   40.3270   25.1600 C   0  0  0  0  0  0  0  0  0  0  0  0
   41.0720   37.3120   30.3560 N   0  0  0  0  0  0  0  0  0  0  0  0
   40.8810   39.9410   29.9960 C   0  0  0  0  0  0  0  0  0  0  0  0
   36.9940   41.5340   26.1440 C   0  0  0  0  0  0  0  0  0  0  0  0
   36.0780   42.5580   26.4780 N   0  0  0  0  0  0  0  0  0  0  0  0
   39.7740   40.2980   26.2840 O   0  0  0  0  0  0  0  0  0  0  0  0
   38.8140   39.9870   27.1910 C   0  0  0  0  0  0  0  0  0  0  0  0
   39.0500   38.7410   29.2950 C   0  0  0  0  0  0  0  0  0  0  0  0
   39.5910   37.4010   29.9420 C   0  0  0  0  0  0  0  0  0  0  0  0
  1  6  1  0
  3  8  1  0
  3  7  1  0
  4  8  2  0
  6  9  1  0
  9 10  1  0
  9  2  1  0
 11 12  2  0
 12  2  1  0
 12  5  1  0
 13  5  1  0
 13  4  1  0
 13 14  1  0
 14  7  1  0
M  END
$$$$

     RDKit          3D

  9  8  0  0  0  0  0  0  0  0999 V2000
   41.4870   42.0480   29.6620 O   0  0  0  0  0  0  0  0  0  0  0  0
   38.6550   38.6080   27.1260 O   0  0  0  0  0  0  0  0  0  0  0  0
   41.0500   39.0660   30.9440 N   0  0  0  0  0  0  0  0  0  0  0  0
   40.4130   38.6530   29.7260 C   0  0  0  0  0  0  0  0  0  0  0  0
   39.2060   40.4870   28.3130 C   0  0  0  0  0  0  0  0  0  0  0  0
   39.2040   41.4740   27.1370 C   0  0  0  0  0  0  0  0  0  0  0  0
   40.5570   39.8100   28.7210 C   0  0  0  0  0  0  0  0  0  0  0  0
   41.2900   40.8330   29.3250 N   0  0  0  0  0  0  0  0  0  0  0  0
   38.0730   39.4950   28.0820 C   0  0  0  0  0  0  0  0  0  0  0  0
  2  9  1  0
  4  3  1  0
  5  6  1  0
  5  7  1  0
  7  8  1  0
  7  4  1  0
  8  1  1  0
  9  5  1  0
M  END
$$$$
