
     RDKit          3D

 11 11  0  0  0  0  0  0  0  0999 V2000
   43.1440   41.4140   26.6660 O   0  0  0  0  0  0  0  0  0  0  0  0
   41.2410   42.2160   31.0290 O   0  0  0  0  0  0  0  0  0  0  0  0
   40.2290   37.1740   30.9250 C   0  0  0  0  0  0  0  0  0  0  0  0
   40.2550   39.7860   29.9010 O   0  0  0  0  0  0  0  0  0  0  0  0
   40.0180   38.5250   30.2250 C   0  0  0  0  0  0  0  0  0  0  0  0
   44.0810   42.5700   29.4110 O   0  0  0  0  0  0  0  0  0  0  0  0
   42.7480   42.3050   28.8900 C   0  0  0  0  0  0  0  0  0  0  0  0
   41.5480   40.4080   27.8920 O   0  0  0  0  0  0  0  0  0  0  0  0
   41.6330   41.8180   29.7700 C   0  0  0  0  0  0  0  0  0  0  0  0
   42.8190   41.0290   28.0860 C   0  0  0  0  0  0  0  0  0  0  0  0
   40.6690   40.7690   29.0090 C   0  0  0  0  0  0  0  0  0  0  0  0
  4  5  1  0
  5  3  1  0
  7  6  1  0
  7  9  1  0
  8 10  1  0
  8 11  1  0
  9  2  1  0
 10  1  1  0
 10  7  1  0
 11  9  1  0
 11  4  1  0
M  END
$$$$

     RDKit          3D

 21 21  0  0  0  0  0  0  0  0999 V2000
   36.9220   40.6120   23.9040 Br  0  0  0  0  0  0  0  0  0  0  0  0
   35.8040   39.5050   27.5720 O   0  0  0  0  0  0  0  0  0  0  0  0
   32.4790   38.3260   27.6400 C   0  0  0  0  0  0  0  0  0  0  0  0
   35.7330   40.4660   26.6360 C   0  0  0  0  0  0  0  0  0  0  0  0
   34.3030   40.0540   26.1460 C   0  0  0  0  0  0  0  0  0  0  0  0
   39.3010   40.3740   28.5970 C   0  0  0  0  0  0  0  0  0  0  0  0
   32.9580   37.1980   26.9020 N   0  0  0  0  0  0  0  0  0  0  0  0
   40.2650   41.5390   28.2610 C   0  0  0  0  0  0  0  0  0  0  0  0
   40.9820   37.9660   30.8040 C   0  0  0  0  0  0  0  0  0  0  0  0
   39.2680   39.3610   25.7170 O   0  0  0  0  0  0  0  0  0  0  0  0
   39.8350   39.1190   28.9910 N   0  0  0  0  0  0  0  0  0  0  0  0
   31.6820   36.9560   27.3800 C   0  0  0  0  0  0  0  0  0  0  0  0
   40.8260   40.4870   30.7990 C   0  0  0  0  0  0  0  0  0  0  0  0
   41.8970   40.4750   31.9100 C   0  0  0  0  0  0  0  0  0  0  0  0
   38.1970   40.2310   26.2070 C   0  0  0  0  0  0  0  0  0  0  0  0
   40.9430   39.2460   29.9460 C   0  0  0  0  0  0  0  0  0  0  0  0
   38.0000   40.2370   27.7290 C   0  0  0  0  0  0  0  0  0  0  0  0
   36.8380   39.8860   25.5760 C   0  0  0  0  0  0  0  0  0  0  0  0
   41.4710   41.0500   27.5280 O   0  0  0  0  0  0  0  0  0  0  0  0
   37.1510   41.2970   28.1230 O   0  0  0  0  0  0  0  0  0  0  0  0
   33.0360   39.7730   27.0670 C   0  0  0  0  0  0  0  0  0  0  0  0
  3 21  1  0
  4  2  1  0
  5  4  1  0
  5 21  1  0
  6  8  1  0
  6 11  1  0
  7 12  1  0
  7  3  1  0
 11 16  1  0
 12  3  1  0
 13 14  1  0
 15 10  1  0
 15 17  1  0
 16 13  1  0
 16  9  1  0
 17 20  1  0
 17  6  1  0
 18  1  1  0
 18 15  1  0
 18  4  1  0
 19  8  1  0
M  END
$$$$

     RDKit          3D

 17 18  0  0  0  0  0  0  0  0999 V2000
   39.9480   41.0030   27.1640 C   0  0  0  0  0  0  0  0  0  0  0  0
   41.2170   40.2120   27.2850 N   0  0  0  0  0  0  0  0  0  0  0  0
   38.9280   39.2270   23.9810 O   0  0  0  0  0  0  0  0  0  0  0  0
   36.8560   41.6390   23.6040 C   0  0  0  0  0  0  0  0  0  0  0  0
   39.9670   39.1780   30.5260 N   0  0  0  0  0  0  0  0  0  0  0  0
   39.2790   41.0220   28.5170 C   0  0  0  0  0  0  0  0  0  0  0  0
   37.3730   39.4080   23.9670 N   0  0  0  0  0  0  0  0  0  0  0  0
   41.4260   38.8600   30.7620 C   0  0  0  0  0  0  0  0  0  0  0  0
   38.7320   40.1800   26.3890 C   0  0  0  0  0  0  0  0  0  0  0  0
   37.6910   40.9420   25.8060 C   0  0  0  0  0  0  0  0  0  0  0  0
   38.6640   38.9160   26.4430 O   0  0  0  0  0  0  0  0  0  0  0  0
   42.1190   38.9490   29.4560 C   0  0  0  0  0  0  0  0  0  0  0  0
   39.9070   39.8780   29.2350 C   0  0  0  0  0  0  0  0  0  0  0  0
   36.8590   40.4330   24.5940 C   0  0  0  0  0  0  0  0  0  0  0  0
   41.4810   40.1000   28.8090 C   0  0  0  0  0  0  0  0  0  0  0  0
   35.4010   39.9650   24.8000 C   0  0  0  0  0  0  0  0  0  0  0  0
   39.1570   37.8520   30.4370 C   0  0  0  0  0  0  0  0  0  0  0  0
  1  9  1  0
  1  2  1  0
  1  6  1  0
  2 15  1  0
  4 14  1  0
  5  8  1  0
  7  3  1  0
  7 14  1  0
  9 11  2  0
 10  9  1  0
 12  8  1  0
 13  6  1  0
 13  5  1  0
 14 16  1  0
 14 10  1  0
 15 13  1  0
 15 12  1  0
 17  5  1  0
M  END
$$$$

     RDKit          3D

 16 16  0  0  0  0  0  0  0  0999 V2000
   38.7390   41.2470   26.5700 C   0  0  0  0  0  0  0  0  0  0  0  0
   37.5380   41.2100   27.3100 O   0  0  0  0  0  0  0  0  0  0  0  0
   39.2160   38.7960   26.7660 O   0  0  0  0  0  0  0  0  0  0  0  0
   41.6190   40.9660   29.4760 C   0  0  0  0  0  0  0  0  0  0  0  0
   40.1020   41.0780   25.4460 C   0  0  0  0  0  0  0  0  0  0  0  0
   39.2720   39.3940   27.9040 C   0  0  0  0  0  0  0  0  0  0  0  0
   40.5310   37.3960   30.8290 C   0  0  0  0  0  0  0  0  0  0  0  0
   41.2890   38.8970   30.9750 O   0  0  0  0  0  0  0  0  0  0  0  0
   42.6110   42.1940   29.3820 C   0  0  0  0  0  0  0  0  0  0  0  0
   39.6040   40.9830   27.8040 C   0  0  0  0  0  0  0  0  0  0  0  0
   40.8360   39.7740   30.1350 C   0  0  0  0  0  0  0  0  0  0  0  0
   40.9310   41.2430   27.9880 N   0  0  0  0  0  0  0  0  0  0  0  0
   39.8610   39.1900   29.2810 C   0  0  0  0  0  0  0  0  0  0  0  0
   39.4310   40.6790   24.3240 O   0  0  0  0  0  0  0  0  0  0  0  0
   40.2250   42.3870   25.4930 O   0  0  0  0  0  0  0  0  0  0  0  0
   36.3380   41.3060   26.5190 C   0  0  0  0  0  0  0  0  0  0  0  0
  1  5  1  0
  1  2  1  0
  4  9  1  0
  4 11  1  0
  5 15  1  0
  6  3  1  0
  6 13  1  0
  7  8  1  0
 10  1  1  0
 10  6  1  0
 10 12  1  0
 11  8  1  0
 12  4  1  0
 13 11  1  0
 14  5  1  0
 16  2  1  0
M  END
$$$$

     RDKit          3D

 16 16  0  0  0  0  0  0  0  0999 V2000
   34.5790   39.4730   24.8120 O   0  0  0  0  0  0  0  0  0  0  0  0
   39.4830   39.7740   26.0510 C   0  0  0  0  0  0  0  0  0  0  0  0
   37.3400   42.4550   26.5780 C   0  0  0  0  0  0  0  0  0  0  0  0
   42.5250   39.2280   29.8010 N   0  0  0  0  0  0  0  0  0  0  0  0
   40.5610   41.0360   29.0910 O   0  0  0  0  0  0  0  0  0  0  0  0
   39.1370   38.5240   25.9510 O   0  0  0  0  0  0  0  0  0  0  0  0
   38.5610   43.5750   27.2440 Cl  0  0  0  0  0  0  0  0  0  0  0  0
   37.0080   40.2610   25.7250 C   0  0  0  0  0  0  0  0  0  0  0  0
   36.0690   42.8140   26.1290 C   0  0  0  0  0  0  0  0  0  0  0  0
   37.8000   41.1510   26.4330 C   0  0  0  0  0  0  0  0  0  0  0  0
   35.7240   40.5790   25.3000 C   0  0  0  0  0  0  0  0  0  0  0  0
   40.0800   40.0560   29.4090 C   0  0  0  0  0  0  0  0  0  0  0  0
   35.2480   41.8620   25.5130 C   0  0  0  0  0  0  0  0  0  0  0  0
   38.8150   40.0330   28.3710 C   0  0  0  0  0  0  0  0  0  0  0  0
   41.2240   39.4710   30.4430 C   0  0  0  0  0  0  0  0  0  0  0  0
   39.0950   40.8890   27.0880 C   0  0  0  0  0  0  0  0  0  0  0  0
  1 11  1  0
  3  7  1  0
  4 15  1  0
  5 12  2  0
  6  2  1  0
  8 10  2  0
  9  3  2  0
 10  3  1  0
 10 16  1  0
 11 13  2  0
 11  8  1  0
 12 15  1  0
 13  9  1  0
 14 12  1  0
 16  2  1  0
 16 14  1  0
M  END
$$$$

     RDKit          3D

  9  8  0  0  0  0  0  0  0  0999 V2000
   40.3540   39.6320   30.1930 C   0  0  0  0  0  0  0  0  0  0  0  0
   39.3400   40.3350   27.9280 C   0  0  0  0  0  0  0  0  0  0  0  0
   41.3730   41.3910   28.5880 O   0  0  0  0  0  0  0  0  0  0  0  0
   38.7330   39.0580   26.3350 O   0  0  0  0  0  0  0  0  0  0  0  0
   41.4330   39.8790   30.9810 O   0  0  0  0  0  0  0  0  0  0  0  0
   38.2570   41.2810   27.6790 O   0  0  0  0  0  0  0  0  0  0  0  0
   40.8080   40.6120   25.9240 O   0  0  0  0  0  0  0  0  0  0  0  0
   39.7660   39.8980   26.5700 C   0  0  0  0  0  0  0  0  0  0  0  0
   40.6130   40.1160   28.7570 C   0  0  0  0  0  0  0  0  0  0  0  0
  1  5  1  0
  2  6  1  0
  2  9  1  0
  4  8  1  0
  7  8  2  0
  8  2  1  0
  9  3  1  0
  9  1  1  0
M  END
$$$$

     RDKit          3D

 12 12  0  0  0  0  0  0  0  0999 V2000
   40.3640   42.3480   27.4380 C   0  0  0  0  0  0  0  0  0  0  0  0
   41.8360   41.9560   27.6490 C   0  0  0  0  0  0  0  0  0  0  0  0
   37.8300   42.9540   26.4920 O   0  0  0  0  0  0  0  0  0  0  0  0
   40.2480   40.3070   28.4110 C   0  0  0  0  0  0  0  0  0  0  0  0
   40.0810   38.6970   30.3710 N   0  0  0  0  0  0  0  0  0  0  0  0
   40.0060   37.2290   30.5890 C   0  0  0  0  0  0  0  0  0  0  0  0
   38.6620   42.2470   26.1230 C   0  0  0  0  0  0  0  0  0  0  0  0
   37.9030   41.1050   28.0300 N   0  0  0  0  0  0  0  0  0  0  0  0
   41.6600   41.0840   29.1530 S   0  0  0  0  0  0  0  0  0  0  0  0
   40.0120   38.9240   28.9140 C   0  0  0  0  0  0  0  0  0  0  0  0
   39.1690   41.8410   25.1660 O   0  0  0  0  0  0  0  0  0  0  0  0
   39.3310   41.1950   27.4810 C   0  0  0  0  0  0  0  0  0  0  0  0
  1 12  1  0
  1  2  1  0
  2  9  1  0
  4 10  1  0
  4  9  1  0
  5  6  1  0
  7  3  1  0
  7 12  1  0
 10  5  1  0
 11  7  2  0
 12  8  1  0
 12  4  1  0
M  END
$$$$

     RDKit          3D

 19 20  0  0  0  0  0  0  0  0999 V2000
   36.2650   41.1470   26.7440 C   0  0  0  0  0  0  0  0  0  0  0  0
   35.1190   41.7220   25.8980 C   0  0  0  0  0  0  0  0  0  0  0  0
   41.9020   38.6990   30.9460 C   0  0  0  0  0  0  0  0  0  0  0  0
   40.9910   39.5060   29.8910 C   0  0  0  0  0  0  0  0  0  0  0  0
   41.1980   37.8740   31.8290 N   0  0  0  0  0  0  0  0  0  0  0  0
   38.9020   39.8110   24.8630 O   0  0  0  0  0  0  0  0  0  0  0  0
   39.9190   38.5880   29.6570 C   0  0  0  0  0  0  0  0  0  0  0  0
   34.2360   39.7410   24.7850 O   0  0  0  0  0  0  0  0  0  0  0  0
   36.7740   40.1880   25.7590 N   0  0  0  0  0  0  0  0  0  0  0  0
   38.9530   39.3040   28.6300 C   0  0  0  0  0  0  0  0  0  0  0  0
   38.0670   40.1610   25.7340 C   0  0  0  0  0  0  0  0  0  0  0  0
   39.6350   37.3760   29.9860 C   0  0  0  0  0  0  0  0  0  0  0  0
   40.4910   36.7630   31.1510 C   0  0  0  0  0  0  0  0  0  0  0  0
   34.1260   40.5770   25.6970 C   0  0  0  0  0  0  0  0  0  0  0  0
   39.6110   40.1260   27.7270 O   0  0  0  0  0  0  0  0  0  0  0  0
   33.2160   40.4940   26.4920 O   0  0  0  0  0  0  0  0  0  0  0  0
   37.5190   41.9200   27.3510 C   0  0  0  0  0  0  0  0  0  0  0  0
   40.8580   40.7770   30.5300 N   0  0  0  0  0  0  0  0  0  0  0  0
   38.4810   40.7420   27.0960 C   0  0  0  0  0  0  0  0  0  0  0  0
  1  2  1  0
  1 17  1  0
  3  5  1  0
  4 18  1  0
  4  3  1  0
  6 11  2  0
  7  4  1  0
  7 12  2  0
  8 14  2  0
  9  1  1  0
 10  7  1  0
 11  9  1  0
 11 19  1  0
 12 13  1  0
 13  5  1  0
 14  2  1  0
 14 16  1  0
 15 10  1  0
 19 17  1  0
 19 15  1  0
M  END
$$$$

     RDKit          3D

 11 11  0  0  0  0  0  0  0  0999 V2000
   40.6630   39.8880   29.3770 C   0  0  0  0  0  0  0  0  0  0  0  0
   39.6310   41.7470   28.3200 C   0  0  0  0  0  0  0  0  0  0  0  0
   39.1580   41.5780   26.0880 O   0  0  0  0  0  0  0  0  0  0  0  0
   39.3610   39.3310   28.8170 C   0  0  0  0  0  0  0  0  0  0  0  0
   39.3870   39.5940   27.3840 O   0  0  0  0  0  0  0  0  0  0  0  0
   40.9800   41.1300   28.5710 C   0  0  0  0  0  0  0  0  0  0  0  0
   39.2010   37.9620   29.2230 O   0  0  0  0  0  0  0  0  0  0  0  0
   40.4680   40.3370   30.7230 O   0  0  0  0  0  0  0  0  0  0  0  0
   38.8900   40.9230   27.2770 C   0  0  0  0  0  0  0  0  0  0  0  0
   39.8260   37.5280   30.4540 C   0  0  0  0  0  0  0  0  0  0  0  0
   41.6920   40.7350   27.4260 O   0  0  0  0  0  0  0  0  0  0  0  0
  1  8  1  0
  2  6  1  0
  4  7  1  0
  4  1  1  0
  5  4  1  0
  6 11  1  0
  6  1  1  0
  7 10  1  0
  9  3  1  0
  9  5  1  0
  9  2  1  0
M  END
$$$$

     RDKit          3D

 17 19  0  0  0  0  0  0  0  0999 V2000
   34.7420   40.0900   25.6310 C   0  0  0  0  0  0  0  0  0  0  0  0
   37.3040   40.7090   27.8780 C   0  0  0  0  0  0  0  0  0  0  0  0
   38.7260   36.2140   29.6580 C   0  0  0  0  0  0  0  0  0  0  0  0
   38.1490   39.4440   25.2600 C   0  0  0  0  0  0  0  0  0  0  0  0
   33.5200   40.5590   25.1380 C   0  0  0  0  0  0  0  0  0  0  0  0
   33.6240   39.1050   25.8070 C   0  0  0  0  0  0  0  0  0  0  0  0
   36.1360   40.3050   25.9630 C   0  0  0  0  0  0  0  0  0  0  0  0
   40.1590   37.8210   30.4930 C   0  0  0  0  0  0  0  0  0  0  0  0
   38.2570   39.8400   27.6890 C   0  0  0  0  0  0  0  0  0  0  0  0
   41.1070   39.0600   30.5070 C   0  0  0  0  0  0  0  0  0  0  0  0
   40.4230   40.2720   29.9300 C   0  0  0  0  0  0  0  0  0  0  0  0
   38.9600   39.8830   29.6360 O   0  0  0  0  0  0  0  0  0  0  0  0
   38.7490   38.9070   28.7630 C   0  0  0  0  0  0  0  0  0  0  0  0
   36.5440   41.0430   27.0160 C   0  0  0  0  0  0  0  0  0  0  0  0
   38.6380   39.4300   26.4490 C   0  0  0  0  0  0  0  0  0  0  0  0
   39.2190   37.5110   29.2790 C   0  0  0  0  0  0  0  0  0  0  0  0
   36.8790   39.8020   24.9250 C   0  0  0  0  0  0  0  0  0  0  0  0
  1  6  1  0
  4 15  2  0
  5  1  1  0
  5  6  1  0
  7  1  1  0
  7 14  1  0
  8 10  1  0
  9 15  1  0
  9  2  1  0
  9 13  1  0
 11 10  1  0
 12 11  1  0
 13 16  1  0
 13 12  1  0
 14  2  1  0
 16  3  1  0
 16  8  1  0
 17  4  1  0
 17  7  1  0
M  END
$$$$

     RDKit          3D

 25 26  0  0  0  0  0  0  0  0999 V2000
   33.1000   41.8150   22.5440 C   0  0  0  0  0  0  0  0  0  0  0  0
   41.0740   40.6430   29.0670 C   0  0  0  0  0  0  0  0  0  0  0  0
   33.5180   40.0110   25.5520 O   0  0  0  0  0  0  0  0  0  0  0  0
   39.3450   40.4390   27.3280 C   0  0  0  0  0  0  0  0  0  0  0  0
   33.9570   40.5860   22.5900 C   0  0  0  0  0  0  0  0  0  0  0  0
   41.3970   42.1660   29.0300 C   0  0  0  0  0  0  0  0  0  0  0  0
   34.8180   40.3400   23.7130 N   0  0  0  0  0  0  0  0  0  0  0  0
   38.7510   39.8430   26.1910 C   0  0  0  0  0  0  0  0  0  0  0  0
   34.9410   40.6820   21.3390 C   0  0  0  0  0  0  0  0  0  0  0  0
   38.5100   41.1790   28.0000 C   0  0  0  0  0  0  0  0  0  0  0  0
   43.0860   41.0370   26.7760 C   0  0  0  0  0  0  0  0  0  0  0  0
   41.8290   42.9660   27.7980 C   0  0  0  0  0  0  0  0  0  0  0  0
   35.4880   41.4780   25.7880 C   0  0  0  0  0  0  0  0  0  0  0  0
   40.2860   39.4560   29.7790 C   0  0  0  0  0  0  0  0  0  0  0  0
   34.6280   40.6450   24.9850 C   0  0  0  0  0  0  0  0  0  0  0  0
   42.0060   39.9670   26.7960 C   0  0  0  0  0  0  0  0  0  0  0  0
   39.5430   39.4890   30.7830 N   0  0  0  0  0  0  0  0  0  0  0  0
   33.0750   39.5030   22.3830 O   0  0  0  0  0  0  0  0  0  0  0  0
   37.3370   41.7970   27.3810 C   0  0  0  0  0  0  0  0  0  0  0  0
   36.9070   41.4000   26.0000 C   0  0  0  0  0  0  0  0  0  0  0  0
   37.8440   40.4930   25.3100 C   0  0  0  0  0  0  0  0  0  0  0  0
   42.5940   42.4290   26.7900 C   0  0  0  0  0  0  0  0  0  0  0  0
   34.5460   42.3970   26.7510 C   0  0  0  0  0  0  0  0  0  0  0  0
   39.0930   38.6430   25.8980 O   0  0  0  0  0  0  0  0  0  0  0  0
   40.7670   40.3010   27.6460 C   0  0  0  0  0  0  0  0  0  0  0  0
  1  5  1  0
  2 14  1  0
  4 25  1  0
  4 10  1  0
  5  7  1  0
  6  2  1  0
  7 15  1  0
  8  4  1  0
  9  5  1  0
 11 22  1  0
 11 16  2  0
 12  6  1  0
 13 23  1  0
 14 17  2  0
 15  3  2  0
 15 13  1  0
 16 25  1  0
 18  5  1  0
 19 10  2  0
 20 13  1  0
 20 19  1  0
 21 20  1  0
 21  8  1  0
 22 12  2  0
 24  8  2  0
 25  2  2  0
M  END
$$$$

     RDKit          3D

 27 28  0  0  0  0  0  0  0  0999 V2000
   40.5590   36.9930   30.9030 C   0  0  0  0  0  0  0  0  0  0  0  0
   39.6380   40.0820   26.8840 C   0  0  0  0  0  0  0  0  0  0  0  0
   40.6330   42.7500   27.4000 C   0  0  0  0  0  0  0  0  0  0  0  0
   37.6310   44.6060   25.8450 O   0  0  0  0  0  0  0  0  0  0  0  0
   40.5220   44.2100   25.4860 O   0  0  0  0  0  0  0  0  0  0  0  0
   39.2180   39.3860   28.1760 C   0  0  0  0  0  0  0  0  0  0  0  0
   41.4200   38.1960   30.7620 C   0  0  0  0  0  0  0  0  0  0  0  0
   42.6010   39.3400   32.0370 O   0  0  0  0  0  0  0  0  0  0  0  0
   41.0990   40.3770   26.9680 C   0  0  0  0  0  0  0  0  0  0  0  0
   35.9060   40.7320   24.3650 C   0  0  0  0  0  0  0  0  0  0  0  0
   36.3660   42.0670   26.6210 C   0  0  0  0  0  0  0  0  0  0  0  0
   38.0270   38.5650   25.7630 O   0  0  0  0  0  0  0  0  0  0  0  0
   41.1380   41.7760   26.3620 C   0  0  0  0  0  0  0  0  0  0  0  0
   39.2390   37.3080   30.9550 C   0  0  0  0  0  0  0  0  0  0  0  0
   38.7550   38.4410   30.3010 N   0  0  0  0  0  0  0  0  0  0  0  0
   38.4900   43.4790   26.1440 C   0  0  0  0  0  0  0  0  0  0  0  0
   42.7220   38.2620   31.2120 N   0  0  0  0  0  0  0  0  0  0  0  0
   40.6100   41.6920   25.0160 O   0  0  0  0  0  0  0  0  0  0  0  0
   36.1960   42.1020   25.0690 C   0  0  0  0  0  0  0  0  0  0  0  0
   39.7080   38.8510   29.3770 C   0  0  0  0  0  0  0  0  0  0  0  0
   40.8400   39.3000   30.2000 C   0  0  0  0  0  0  0  0  0  0  0  0
   39.1760   39.2760   25.6950 N   0  0  0  0  0  0  0  0  0  0  0  0
   41.0860   40.5650   30.5490 O   0  0  0  0  0  0  0  0  0  0  0  0
   39.9320   43.8330   26.5110 C   0  0  0  0  0  0  0  0  0  0  0  0
   38.7580   41.2520   26.9370 O   0  0  0  0  0  0  0  0  0  0  0  0
   35.9680   40.9450   22.8710 C   0  0  0  0  0  0  0  0  0  0  0  0
   37.8360   42.4150   27.0200 C   0  0  0  0  0  0  0  0  0  0  0  0
  1 14  1  0
  2 25  1  0
  2  9  1  0
  2  6  1  0
  7  1  1  0
  7 17  1  0
 10 19  1  0
 13 18  1  0
 13  9  1  0
 13  3  1  0
 15 14  1  0
 16  4  1  0
 16 24  1  0
 16 27  1  0
 17  8  1  0
 19 11  1  0
 20  6  1  0
 20 21  1  0
 20 15  1  0
 21 23  1  0
 21  7  1  0
 22 12  1  0
 22  2  1  0
 24  5  1  0
 24  3  1  0
 25 27  1  0
 26 10  1  0
 27 11  1  0
M  END
$$$$

     RDKit          3D

  5  4  0  0  0  0  0  0  0  0999 V2000
   39.3000   40.0420   28.6870 C   0  0  0  0  0  0  0  0  0  0  0  0
   39.6790   37.9580   30.0480 N   0  0  0  0  0  0  0  0  0  0  0  0
   40.2240   39.1180   29.4250 C   0  0  0  0  0  0  0  0  0  0  0  0
   41.4410   39.4510   29.6620 N   0  0  0  0  0  0  0  0  0  0  0  0
   39.8030   41.4760   28.6720 C   0  0  0  0  0  0  0  0  0  0  0  0
  1  3  1  0
  3  4  2  0
  3  2  1  0
  5  1  1  0
M  END
$$$$

     RDKit          3D

  8  7  0  0  0  0  0  0  0  0999 V2000
   40.4450   39.1910   29.0100 O   0  0  0  0  0  0  0  0  0  0  0  0
   39.7320   41.2840   29.4590 N   0  0  0  0  0  0  0  0  0  0  0  0
   39.2690   38.7660   26.9470 O   0  0  0  0  0  0  0  0  0  0  0  0
   38.7700   42.9700   25.9070 S   0  0  0  0  0  0  0  0  0  0  0  0
   39.6800   39.5410   27.9600 C   0  0  0  0  0  0  0  0  0  0  0  0
   39.2190   41.0750   28.0740 C   0  0  0  0  0  0  0  0  0  0  0  0
   39.9470   41.9280   26.9550 C   0  0  0  0  0  0  0  0  0  0  0  0
   37.6970   41.1810   28.0850 N   0  0  0  0  0  0  0  0  0  0  0  0
  3  5  2  0
  4  7  1  0
  5  6  1  0
  5  1  1  0
  6  8  1  0
  6  2  1  0
  7  6  1  0
M  END
$$$$

     RDKit          3D

 22 24  0  0  0  0  0  0  0  0999 V2000
   36.0660   43.0200   26.3870 C   0  0  0  0  0  0  0  0  0  0  0  0
   39.7750   39.3400   29.1400 C   0  0  0  0  0  0  0  0  0  0  0  0
   39.4250   41.3030   27.8240 O   0  0  0  0  0  0  0  0  0  0  0  0
   41.5730   39.2820   31.0430 C   0  0  0  0  0  0  0  0  0  0  0  0
   36.1900   40.7810   25.7990 C   0  0  0  0  0  0  0  0  0  0  0  0
   40.3860   38.6550   30.4030 C   0  0  0  0  0  0  0  0  0  0  0  0
   37.3790   42.9730   27.0940 C   0  0  0  0  0  0  0  0  0  0  0  0
   35.3870   41.7800   26.3760 C   0  0  0  0  0  0  0  0  0  0  0  0
   41.9830   40.6530   30.5510 C   0  0  0  0  0  0  0  0  0  0  0  0
   38.9010   39.1950   25.6680 O   0  0  0  0  0  0  0  0  0  0  0  0
   43.2600   42.6700   31.7060 C   0  0  0  0  0  0  0  0  0  0  0  0
   39.9800   37.2490   30.9980 C   0  0  0  0  0  0  0  0  0  0  0  0
   43.3020   41.3570   31.0150 N   0  0  0  0  0  0  0  0  0  0  0  0
   44.6930   40.7710   30.6480 C   0  0  0  0  0  0  0  0  0  0  0  0
   38.5550   38.5500   28.7640 C   0  0  0  0  0  0  0  0  0  0  0  0
   42.4030   38.5000   32.0440 C   0  0  0  0  0  0  0  0  0  0  0  0
   38.4400   39.5210   26.5000 C   0  0  0  0  0  0  0  0  0  0  0  0
   41.0710   41.3270   29.5380 C   0  0  0  0  0  0  0  0  0  0  0  0
   38.1840   41.9570   26.9800 C   0  0  0  0  0  0  0  0  0  0  0  0
   37.7420   40.8460   26.0530 N   0  0  0  0  0  0  0  0  0  0  0  0
   38.0610   38.9580   27.3590 O   0  0  0  0  0  0  0  0  0  0  0  0
   39.9750   40.5460   28.9340 C   0  0  0  0  0  0  0  0  0  0  0  0
  1  7  1  0
  2  6  1  0
  3 22  1  0
  4 16  1  0
  5 20  1  0
  5  8  1  0
  6 12  1  0
  6  4  2  0
  8  1  1  0
  9 13  1  0
  9  4  1  0
 10 17  2  0
 13 11  1  0
 14 13  1  0
 15  2  1  0
 17 21  1  0
 18  9  2  0
 19  7  1  0
 19  3  1  0
 20 17  1  0
 20 19  1  0
 21 15  1  0
 22  2  2  0
 22 18  1  0
M  END
$$$$

     RDKit          3D

 16 16  0  0  0  0  0  0  0  0999 V2000
   37.6400   40.3240   26.0810 C   0  0  0  0  0  0  0  0  0  0  0  0
   43.7490   39.5920   30.0550 O   0  0  0  0  0  0  0  0  0  0  0  0
   39.4240   39.3830   27.2410 C   0  0  0  0  0  0  0  0  0  0  0  0
   43.1580   43.0060   31.8900 O   0  0  0  0  0  0  0  0  0  0  0  0
   38.3960   39.3180   26.4270 N   0  0  0  0  0  0  0  0  0  0  0  0
   43.7510   41.9290   31.1110 S   0  0  0  0  0  0  0  0  0  0  0  0
   39.3330   41.4730   28.3120 C   0  0  0  0  0  0  0  0  0  0  0  0
   37.4640   41.5380   26.7250 C   0  0  0  0  0  0  0  0  0  0  0  0
   41.6420   40.7400   29.7720 C   0  0  0  0  0  0  0  0  0  0  0  0
   40.3670   38.8260   29.9210 N   0  0  0  0  0  0  0  0  0  0  0  0
   39.8600   40.2090   28.1000 C   0  0  0  0  0  0  0  0  0  0  0  0
   43.0300   40.5490   30.2050 C   0  0  0  0  0  0  0  0  0  0  0  0
   40.9960   39.6630   28.9090 C   0  0  0  0  0  0  0  0  0  0  0  0
   38.2190   42.0690   27.7750 C   0  0  0  0  0  0  0  0  0  0  0  0
   44.3430   42.5770   29.8670 O   0  0  0  0  0  0  0  0  0  0  0  0
   44.5990   41.0470   31.9140 O   0  0  0  0  0  0  0  0  0  0  0  0
  1  5  2  0
  1  8  1  0
  2 12  2  0
  3 11  2  0
  5  3  1  0
  6  4  1  0
  6 16  1  0
  8 14  1  0
  9 12  1  0
 11  7  1  0
 11 13  1  0
 12  6  1  0
 13  9  1  0
 13 10  1  0
 14  7  2  0
 15  6  1  0
M  END
$$$$

     RDKit          3D

 15 15  0  0  0  0  0  0  0  0999 V2000
   35.7950   41.8070   23.3910 C   0  0  0  0  0  0  0  0  0  0  0  0
   40.3040   39.9260   28.8070 C   0  0  0  0  0  0  0  0  0  0  0  0
   38.9990   41.7100   27.6670 C   0  0  0  0  0  0  0  0  0  0  0  0
   38.9630   40.2690   28.0650 C   0  0  0  0  0  0  0  0  0  0  0  0
   41.3480   40.0650   28.3320 O   0  0  0  0  0  0  0  0  0  0  0  0
   40.7510   38.1570   30.4310 N   0  0  0  0  0  0  0  0  0  0  0  0
   38.4120   39.8620   25.5710 C   0  0  0  0  0  0  0  0  0  0  0  0
   34.3750   41.2750   26.1980 O   0  0  0  0  0  0  0  0  0  0  0  0
   36.7040   41.6180   26.4130 N   0  0  0  0  0  0  0  0  0  0  0  0
   36.8120   40.8000   23.9680 C   0  0  0  0  0  0  0  0  0  0  0  0
   35.3800   42.2530   26.1780 C   0  0  0  0  0  0  0  0  0  0  0  0
   39.8130   39.0480   29.9640 C   0  0  0  0  0  0  0  0  0  0  0  0
   37.5760   42.1490   27.4280 C   0  0  0  0  0  0  0  0  0  0  0  0
   38.7800   39.2940   26.8850 C   0  0  0  0  0  0  0  0  0  0  0  0
   37.0320   40.5240   25.4960 C   0  0  0  0  0  0  0  0  0  0  0  0
  1 10  1  0
  2 12  1  0
  3  4  1  0
  4  2  1  0
  5  2  2  0
  7 14  1  0
  9 13  1  0
 11  8  1  0
 11  9  1  0
 12  6  1  0
 13  3  1  0
 14  4  1  0
 15 10  1  0
 15  7  1  0
 15  9  1  0
M  END
$$$$

     RDKit          3D

  6  5  0  0  0  0  0  0  0  0999 V2000
   39.6900   39.8920   28.4190 N   0  0  0  0  0  0  0  0  0  0  0  0
   40.5380   39.2220   29.2410 C   0  0  0  0  0  0  0  0  0  0  0  0
   40.5390   37.4690   30.8100 N   0  0  0  0  0  0  0  0  0  0  0  0
   39.0530   41.1120   28.7390 C   0  0  0  0  0  0  0  0  0  0  0  0
   38.3380   41.8040   27.6440 C   0  0  0  0  0  0  0  0  0  0  0  0
   39.9590   38.7390   30.5490 C   0  0  0  0  0  0  0  0  0  0  0  0
  1  4  2  3
  1  2  1  0
  2  6  1  0
  5  4  1  0
  6  3  1  0
M  END
$$$$

     RDKit          3D

 15 16  0  0  0  0  0  0  0  0999 V2000
   37.4600   38.9950   25.2160 C   0  0  0  0  0  0  0  0  0  0  0  0
   40.9250   40.1080   29.7230 C   0  0  0  0  0  0  0  0  0  0  0  0
   39.1390   41.2370   28.0640 N   0  0  0  0  0  0  0  0  0  0  0  0
   38.4990   38.4600   25.9250 N   0  0  0  0  0  0  0  0  0  0  0  0
   40.0400   40.1530   28.5510 C   0  0  0  0  0  0  0  0  0  0  0  0
   41.2930   40.9920   30.5390 C   0  0  0  0  0  0  0  0  0  0  0  0
   34.9720   42.5730   26.1560 S   0  0  0  0  0  0  0  0  0  0  0  0
   39.9550   39.0480   27.7870 N   0  0  0  0  0  0  0  0  0  0  0  0
   37.2720   40.9910   26.4010 C   0  0  0  0  0  0  0  0  0  0  0  0
   37.2240   43.1370   27.4970 C   0  0  0  0  0  0  0  0  0  0  0  0
   36.6370   42.2390   26.6620 C   0  0  0  0  0  0  0  0  0  0  0  0
   38.4270   40.5760   27.0910 C   0  0  0  0  0  0  0  0  0  0  0  0
   41.0400   38.7110   30.0740 N   0  0  0  0  0  0  0  0  0  0  0  0
   38.9860   39.2870   26.8930 C   0  0  0  0  0  0  0  0  0  0  0  0
   36.7790   40.1660   25.4130 N   0  0  0  0  0  0  0  0  0  0  0  0
  1 15  2  0
  1  4  1  0
  2 13  1  0
  2  6  2  0
  3  5  2  0
  4 14  2  0
  5  2  1  0
  7 11  1  0
  8  5  1  0
  9 11  1  0
  9 12  2  0
 11 10  2  0
 12  3  1  0
 14 12  1  0
 14  8  1  0
 15  9  1  0
M  END
$$$$

     RDKit          3D

 13 14  0  0  0  0  0  0  0  0999 V2000
   41.8120   41.8930   27.3350 O   0  0  0  0  0  0  0  0  0  0  0  0
   39.6430   41.4300   28.3590 C   0  0  0  0  0  0  0  0  0  0  0  0
   42.8090   41.5630   26.3420 C   0  0  0  0  0  0  0  0  0  0  0  0
   39.9800   39.9730   28.6140 C   0  0  0  0  0  0  0  0  0  0  0  0
   40.9570   37.6550   31.4650 C   0  0  0  0  0  0  0  0  0  0  0  0
   41.8600   40.6520   26.7530 C   0  0  0  0  0  0  0  0  0  0  0  0
   41.8080   38.8940   31.6100 N   0  0  0  0  0  0  0  0  0  0  0  0
   41.5170   39.8040   25.6720 F   0  0  0  0  0  0  0  0  0  0  0  0
   41.1840   40.0570   31.1270 C   0  0  0  0  0  0  0  0  0  0  0  0
   40.1810   38.0210   30.1350 C   0  0  0  0  0  0  0  0  0  0  0  0
   38.7520   39.2770   27.9910 C   0  0  0  0  0  0  0  0  0  0  0  0
   41.3320   39.7490   27.9500 C   0  0  0  0  0  0  0  0  0  0  0  0
   40.1850   39.5000   29.9600 N   0  0  0  0  0  0  0  0  0  0  0  0
  2  4  1  0
  3  6  1  0
  3  1  1  0
  4 13  1  0
  5  7  1  0
  6  8  1  0
  6  1  1  0
  6 12  1  0
  9  7  1  0
 10  5  1  0
 11  4  1  0
 12  4  1  0
 13 10  1  0
 13  9  1  0
M  END
$$$$
