
     RDKit          3D

 28 30  0  0  0  0  0  0  0  0999 V2000
   42.1140   41.8890   34.3670 O   0  0  0  0  0  0  0  0  0  0  0  0
   37.8110   38.6480   24.1420 P   0  0  0  0  0  0  0  0  0  0  0  0
   43.4990   42.5660   32.6520 C   0  0  0  0  0  0  0  0  0  0  0  0
   38.4230   40.1720   28.0580 C   0  0  0  0  0  0  0  0  0  0  0  0
   38.2900   41.3040   28.7710 C   0  0  0  0  0  0  0  0  0  0  0  0
   41.0420   39.9960   31.7920 C   0  0  0  0  0  0  0  0  0  0  0  0
   40.1120   40.1440   29.7560 C   0  0  0  0  0  0  0  0  0  0  0  0
   39.4120   39.6300   27.2330 O   0  0  0  0  0  0  0  0  0  0  0  0
   43.8710   40.9470   30.5960 C   0  0  0  0  0  0  0  0  0  0  0  0
   39.2700   39.5290   28.6700 C   0  0  0  0  0  0  0  0  0  0  0  0
   36.4320   37.9000   24.0410 O   0  0  0  0  0  0  0  0  0  0  0  0
   36.8170   40.3090   27.4510 C   0  0  0  0  0  0  0  0  0  0  0  0
   38.2930   38.1110   22.5670 C   0  0  0  0  0  0  0  0  0  0  0  0
   39.8640   38.1560   31.2000 O   0  0  0  0  0  0  0  0  0  0  0  0
   40.2450   39.4140   31.0230 C   0  0  0  0  0  0  0  0  0  0  0  0
   43.4020   44.1960   32.6710 C   0  0  0  0  0  0  0  0  0  0  0  0
   45.0140   40.4440   29.7210 C   0  0  0  0  0  0  0  0  0  0  0  0
   42.3350   39.4130   32.3450 C   0  0  0  0  0  0  0  0  0  0  0  0
   37.2560   42.3700   28.5790 C   0  0  0  0  0  0  0  0  0  0  0  0
   38.4030   40.1000   23.9830 O   0  0  0  0  0  0  0  0  0  0  0  0
   36.9960   39.5590   26.5200 N   0  0  0  0  0  0  0  0  0  0  0  0
   39.2800   41.2870   29.8110 O   0  0  0  0  0  0  0  0  0  0  0  0
   43.4460   39.8510   31.4630 O   0  0  0  0  0  0  0  0  0  0  0  0
   41.1590   41.4160   32.1660 O   0  0  0  0  0  0  0  0  0  0  0  0
   44.0890   42.3380   31.2830 C   0  0  0  0  0  0  0  0  0  0  0  0
   45.5060   42.6530   31.5780 O   0  0  0  0  0  0  0  0  0  0  0  0
   42.2580   41.9220   33.2180 C   0  0  0  0  0  0  0  0  0  0  0  0
   37.8680   39.0350   25.6640 C   0  0  0  0  0  0  0  0  0  0  0  0
  2 13  1  0
  2 28  1  0
  3 16  1  0
  3 27  1  0
  4 12  1  0
  4 10  1  0
  4  5  1  0
  5 19  1  0
  5 22  1  0
  6 15  1  0
  6 24  1  0
  6 18  1  0
  7 22  1  0
  7 15  1  0
  8  4  1  0
  9 17  1  0
  9 25  1  0
  9 23  1  0
 10  8  1  0
 10  7  1  0
 11  2  1  0
 15 14  1  0
 20  2  2  0
 21 12  1  0
 23 18  1  0
 24 27  1  0
 25 26  1  0
 25  3  1  0
 27  1  2  0
 28 21  1  0
M  END
$$$$

     RDKit          3D

 21 22  0  0  0  0  0  0  0  0999 V2000
   43.6480   40.8390   27.2790 C   0  0  0  0  0  0  0  0  0  0  0  0
   40.3240   40.7350   33.1480 O   0  0  0  0  0  0  0  0  0  0  0  0
   38.5680   41.0200   27.0170 C   0  0  0  0  0  0  0  0  0  0  0  0
   41.0120   40.7500   29.3560 N   0  0  0  0  0  0  0  0  0  0  0  0
   44.9300   40.5920   29.9280 C   0  0  0  0  0  0  0  0  0  0  0  0
   41.8870   41.9230   29.8690 C   0  0  0  0  0  0  0  0  0  0  0  0
   40.9980   40.1300   26.3530 C   0  0  0  0  0  0  0  0  0  0  0  0
   39.3550   40.9940   31.2720 C   0  0  0  0  0  0  0  0  0  0  0  0
   42.2030   40.4690   27.0100 C   0  0  0  0  0  0  0  0  0  0  0  0
   38.9190   42.2450   29.3440 O   0  0  0  0  0  0  0  0  0  0  0  0
   40.5080   40.2970   31.8010 N   0  0  0  0  0  0  0  0  0  0  0  0
   39.6390   41.3310   29.6590 C   0  0  0  0  0  0  0  0  0  0  0  0
   38.5740   40.2260   31.1080 F   0  0  0  0  0  0  0  0  0  0  0  0
   39.2360   38.9600   26.8940 O   0  0  0  0  0  0  0  0  0  0  0  0
   37.3400   41.8100   24.9840 C   0  0  0  0  0  0  0  0  0  0  0  0
   39.7090   40.1500   27.1400 C   0  0  0  0  0  0  0  0  0  0  0  0
   39.8610   40.0120   28.7360 C   0  0  0  0  0  0  0  0  0  0  0  0
   44.5860   40.6080   28.5030 C   0  0  0  0  0  0  0  0  0  0  0  0
   42.7260   41.5460   31.2040 C   0  0  0  0  0  0  0  0  0  0  0  0
   43.9180   40.7010   31.1790 C   0  0  0  0  0  0  0  0  0  0  0  0
   38.0360   40.8380   25.6410 C   0  0  0  0  0  0  0  0  0  0  0  0
  1 18  1  0
  3 16  1  0
  4 12  1  0
  4  6  1  0
  5 20  1  0
  6 19  1  0
  7  9  2  0
  7 16  1  0
  8 13  1  0
  8 11  1  0
  9  1  2  0
 11  2  1  0
 12 10  1  0
 12  8  1  0
 15 21  2  0
 16 14  1  0
 16 17  1  0
 17  4  1  0
 17 12  1  0
 18  5  2  0
 20 19  1  0
 21  3  1  0
M  END
$$$$

     RDKit          3D

  9  9  0  0  0  0  0  0  0  0999 V2000
   41.5720   42.9110   30.2460 C   0  0  0  0  0  0  0  0  0  0  0  0
   42.4500   43.8080   28.2050 C   0  0  0  0  0  0  0  0  0  0  0  0
   41.3380   41.9600   31.2020 C   0  0  0  0  0  0  0  0  0  0  0  0
   42.7790   40.4580   30.0540 C   0  0  0  0  0  0  0  0  0  0  0  0
   42.7690   43.3760   26.7890 C   0  0  0  0  0  0  0  0  0  0  0  0
   43.3000   39.1890   30.0720 O   0  0  0  0  0  0  0  0  0  0  0  0
   42.3610   42.6690   29.1520 C   0  0  0  0  0  0  0  0  0  0  0  0
   42.9090   41.4080   29.0370 C   0  0  0  0  0  0  0  0  0  0  0  0
   41.9320   40.7250   31.1000 C   0  0  0  0  0  0  0  0  0  0  0  0
  1  3  1  0
  2  7  1  0
  4  6  1  0
  4  9  1  0
  5  2  1  0
  7  1  2  0
  8  7  1  0
  8  4  2  0
  9  3  2  0
M  END
$$$$

     RDKit          3D

 25 27  0  0  0  0  0  0  0  0999 V2000
   40.6720   39.9990   27.1320 O   0  0  0  0  0  0  0  0  0  0  0  0
   36.6880   41.6710   26.3060 C   0  0  0  0  0  0  0  0  0  0  0  0
   42.4390   40.8610   32.3420 C   0  0  0  0  0  0  0  0  0  0  0  0
   41.1750   41.2800   29.5290 N   0  0  0  0  0  0  0  0  0  0  0  0
   43.5720   40.8150   28.8300 C   0  0  0  0  0  0  0  0  0  0  0  0
   39.8990   40.9860   29.0340 C   0  0  0  0  0  0  0  0  0  0  0  0
   44.6980   39.8180   31.8000 C   0  0  0  0  0  0  0  0  0  0  0  0
   39.4720   40.9840   27.3460 C   0  0  0  0  0  0  0  0  0  0  0  0
   41.4770   41.2390   31.0240 C   0  0  0  0  0  0  0  0  0  0  0  0
   39.1840   42.7920   25.3400 C   0  0  0  0  0  0  0  0  0  0  0  0
   37.9740   41.0970   27.6120 C   0  0  0  0  0  0  0  0  0  0  0  0
   37.6350   41.6160   28.9310 O   0  0  0  0  0  0  0  0  0  0  0  0
   44.5360   41.3970   29.5350 C   0  0  0  0  0  0  0  0  0  0  0  0
   42.2750   42.6200   27.9490 O   0  0  0  0  0  0  0  0  0  0  0  0
   40.0370   40.9950   31.6670 C   0  0  0  0  0  0  0  0  0  0  0  0
   39.4290   39.5820   29.6190 C   0  0  0  0  0  0  0  0  0  0  0  0
   41.1070   38.3130   30.9620 C   0  0  0  0  0  0  0  0  0  0  0  0
   38.5380   40.2330   25.2190 C   0  0  0  0  0  0  0  0  0  0  0  0
   42.2870   41.7240   28.7230 C   0  0  0  0  0  0  0  0  0  0  0  0
   40.1850   41.3120   33.1190 C   0  0  0  0  0  0  0  0  0  0  0  0
   44.9540   40.8610   30.7150 C   0  0  0  0  0  0  0  0  0  0  0  0
   39.9680   39.3700   31.0810 C   0  0  0  0  0  0  0  0  0  0  0  0
   39.1400   41.2870   25.8680 C   0  0  0  0  0  0  0  0  0  0  0  0
   41.5610   40.8360   33.6280 C   0  0  0  0  0  0  0  0  0  0  0  0
   43.8930   40.4070   32.9570 C   0  0  0  0  0  0  0  0  0  0  0  0
  3 25  1  0
  3 24  1  0
  5 13  1  0
  6  8  1  0
  6  4  1  0
  6 16  1  0
  7 25  1  0
  8  1  1  0
  8 11  1  0
  9  4  1  0
  9 15  1  0
  9  3  1  0
 10 23  1  0
 11  2  1  0
 11 12  1  0
 13 21  2  0
 14 19  2  0
 15 20  1  0
 16 22  1  0
 18 23  2  0
 19  5  1  0
 19  4  1  0
 20 24  1  0
 21  7  1  0
 22 17  1  0
 22 15  1  0
 23  8  1  0
M  END
$$$$

     RDKit          3D

 11 12  0  0  0  0  0  0  0  0999 V2000
   40.8370   44.8200   29.7710 N   0  0  0  0  0  0  0  0  0  0  0  0
   42.3710   40.6240   27.7570 C   0  0  0  0  0  0  0  0  0  0  0  0
   41.7210   43.9220   30.2650 C   0  0  0  0  0  0  0  0  0  0  0  0
   42.1260   43.8880   31.4430 O   0  0  0  0  0  0  0  0  0  0  0  0
   41.3090   41.3820   27.5890 N   0  0  0  0  0  0  0  0  0  0  0  0
   43.2080   42.1380   29.5060 C   0  0  0  0  0  0  0  0  0  0  0  0
   43.0970   40.8890   28.9750 C   0  0  0  0  0  0  0  0  0  0  0  0
   44.6510   42.7690   30.5720 I   0  0  0  0  0  0  0  0  0  0  0  0
   43.0640   39.8860   28.4300 N   0  0  0  0  0  0  0  0  0  0  0  0
   41.2710   42.5870   28.1600 C   0  0  0  0  0  0  0  0  0  0  0  0
   42.0310   42.8770   29.1920 C   0  0  0  0  0  0  0  0  0  0  0  0
  1  3  1  0
  2  5  1  0
  2  9  1  0
  2  7  1  0
  3  4  2  0
  5 10  1  0
  6  8  1  0
  7  9  1  0
  7  6  1  0
 10 11  1  0
 11  6  1  0
 11  3  1  0
M  END
$$$$

     RDKit          3D

 11 11  0  0  0  0  0  0  0  0999 V2000
   41.2670   43.7510   28.6330 O   0  0  0  0  0  0  0  0  0  0  0  0
   41.8650   41.8700   31.6610 O   0  0  0  0  0  0  0  0  0  0  0  0
   44.5110   39.5830   30.7290 O   0  0  0  0  0  0  0  0  0  0  0  0
   40.7260   44.3830   30.7820 O   0  0  0  0  0  0  0  0  0  0  0  0
   41.3520   43.4740   29.9480 C   0  0  0  0  0  0  0  0  0  0  0  0
   42.4950   42.6920   30.6300 C   0  0  0  0  0  0  0  0  0  0  0  0
   43.4380   40.8540   33.1140 O   0  0  0  0  0  0  0  0  0  0  0  0
   43.9210   40.8710   30.7250 C   0  0  0  0  0  0  0  0  0  0  0  0
   42.7940   40.8040   31.8620 C   0  0  0  0  0  0  0  0  0  0  0  0
   41.3980   44.9890   32.1510 C   0  0  0  0  0  0  0  0  0  0  0  0
   43.2810   41.7610   29.5800 C   0  0  0  0  0  0  0  0  0  0  0  0
  1  5  2  0
  2  9  1  0
  4 10  1  0
  5  4  1  0
  6  5  1  0
  6  2  1  0
  8  3  1  0
  8  9  1  0
  9  7  1  0
 11  6  1  0
 11  8  1  0
M  END
$$$$

     RDKit          3D

 16 16  0  0  0  0  0  0  0  0999 V2000
   43.5530   40.0520   31.0990 C   0  0  0  0  0  0  0  0  0  0  0  0
   39.5130   43.3030   27.9610 S   0  0  0  0  0  0  0  0  0  0  0  0
   41.3620   42.4200   29.3860 C   0  0  0  0  0  0  0  0  0  0  0  0
   42.3510   43.1820   28.4240 C   0  0  0  0  0  0  0  0  0  0  0  0
   40.3180   40.9400   32.6830 O   0  0  0  0  0  0  0  0  0  0  0  0
   44.6500   39.6000   31.1310 O   0  0  0  0  0  0  0  0  0  0  0  0
   42.8870   40.6580   30.0720 N   0  0  0  0  0  0  0  0  0  0  0  0
   42.0660   44.5170   28.2400 N   0  0  0  0  0  0  0  0  0  0  0  0
   39.9300   42.8130   29.3960 C   0  0  0  0  0  0  0  0  0  0  0  0
   41.6700   41.4810   30.4220 C   0  0  0  0  0  0  0  0  0  0  0  0
   43.4930   42.7390   27.9950 O   0  0  0  0  0  0  0  0  0  0  0  0
   39.0970   41.8450   30.2190 C   0  0  0  0  0  0  0  0  0  0  0  0
   43.3700   40.2490   28.8480 C   0  0  0  0  0  0  0  0  0  0  0  0
   41.3920   40.8360   31.8210 C   0  0  0  0  0  0  0  0  0  0  0  0
   42.5910   40.0830   32.3150 C   0  0  0  0  0  0  0  0  0  0  0  0
   42.4860   40.6340   27.8840 N   0  0  0  0  0  0  0  0  0  0  0  0
  1  6  2  0
  1 15  1  0
  2  9  1  0
  3  4  1  0
  3  9  1  0
  7 10  1  0
  7  1  1  0
  8  4  1  0
  9 12  1  0
 10  3  1  0
 10 14  1  0
 11  4  2  0
 13  7  1  0
 14 15  1  0
 14  5  1  0
 16 13  1  0
M  END
$$$$

     RDKit          3D

  9  9  0  0  0  0  0  0  0  0999 V2000
   43.5370   41.8180   30.4500 N   0  0  0  0  0  0  0  0  0  0  0  0
   42.3770   43.8560   30.4550 O   0  0  0  0  0  0  0  0  0  0  0  0
   43.0690   40.4880   30.0220 C   0  0  0  0  0  0  0  0  0  0  0  0
   42.1700   41.0910   27.9950 C   0  0  0  0  0  0  0  0  0  0  0  0
   42.1210   41.3360   26.4840 C   0  0  0  0  0  0  0  0  0  0  0  0
   42.5890   42.8000   29.8810 C   0  0  0  0  0  0  0  0  0  0  0  0
   41.7730   42.3230   28.7400 N   0  0  0  0  0  0  0  0  0  0  0  0
   43.5220   39.4500   30.8860 N   0  0  0  0  0  0  0  0  0  0  0  0
   43.4410   40.4330   28.5460 C   0  0  0  0  0  0  0  0  0  0  0  0
  3  1  1  0
  3  8  1  0
  4  5  1  0
  4  9  1  0
  4  7  1  0
  6  1  1  0
  6  2  2  0
  7  6  1  0
  9  3  1  0
M  END
$$$$

     RDKit          3D

 22 24  0  0  0  0  0  0  0  0999 V2000
   38.7960   40.5730   27.7900 C   0  0  0  0  0  0  0  0  0  0  0  0
   40.0980   40.9530   30.3950 C   0  0  0  0  0  0  0  0  0  0  0  0
   42.8730   42.1740   30.2530 C   0  0  0  0  0  0  0  0  0  0  0  0
   42.4520   41.2090   31.3740 C   0  0  0  0  0  0  0  0  0  0  0  0
   46.0170   40.2120   32.6990 C   0  0  0  0  0  0  0  0  0  0  0  0
   41.0330   40.9720   31.6360 C   0  0  0  0  0  0  0  0  0  0  0  0
   38.3220   41.7120   28.7680 C   0  0  0  0  0  0  0  0  0  0  0  0
   36.3690   41.9190   27.2390 C   0  0  0  0  0  0  0  0  0  0  0  0
   48.3460   41.2140   34.5370 I   0  0  0  0  0  0  0  0  0  0  0  0
   47.1330   40.8720   32.9300 C   0  0  0  0  0  0  0  0  0  0  0  0
   39.1500   41.9860   29.9730 N   0  0  0  0  0  0  0  0  0  0  0  0
   44.9680   40.6990   31.9540 C   0  0  0  0  0  0  0  0  0  0  0  0
   37.1340   42.4150   28.3100 C   0  0  0  0  0  0  0  0  0  0  0  0
   35.6930   39.9100   25.2570 Cl  0  0  0  0  0  0  0  0  0  0  0  0
   45.5470   41.5010   31.1590 C   0  0  0  0  0  0  0  0  0  0  0  0
   40.5900   40.9870   32.7650 O   0  0  0  0  0  0  0  0  0  0  0  0
   36.8020   40.7830   26.4570 C   0  0  0  0  0  0  0  0  0  0  0  0
   40.4680   40.0830   29.3780 N   0  0  0  0  0  0  0  0  0  0  0  0
   43.5190   40.4920   32.1530 C   0  0  0  0  0  0  0  0  0  0  0  0
   39.9110   39.8200   28.1170 C   0  0  0  0  0  0  0  0  0  0  0  0
   47.4040   41.7160   31.4220 S   0  0  0  0  0  0  0  0  0  0  0  0
   38.0520   40.1970   26.6470 C   0  0  0  0  0  0  0  0  0  0  0  0
  1 20  1  0
  1  7  1  0
  2  6  1  0
  3  4  1  0
  4  6  1  0
  4 19  2  3
  5 10  1  0
  6 16  2  0
  7 11  1  0
  8 13  1  0
 10  9  1  0
 11  2  2  0
 12 19  1  0
 12  5  1  0
 13  7  2  0
 14 17  1  0
 15 21  1  0
 15 12  2  0
 17 22  1  0
 17  8  2  0
 18  2  1  0
 20 18  2  0
 21 10  1  0
 22  1  2  0
M  END
$$$$

     RDKit          3D

 13 13  0  0  0  0  0  0  0  0999 V2000
   42.2700   42.9570   30.9100 P   0  0  0  0  0  0  0  0  0  0  0  0
   42.8280   40.8410   28.0910 C   0  0  0  0  0  0  0  0  0  0  0  0
   43.3770   41.9300   30.2880 O   0  0  0  0  0  0  0  0  0  0  0  0
   41.3270   41.7790   26.3410 C   0  0  0  0  0  0  0  0  0  0  0  0
   44.5560   39.6790   29.3430 O   0  0  0  0  0  0  0  0  0  0  0  0
   42.2320   42.4930   27.6710 S   0  0  0  0  0  0  0  0  0  0  0  0
   41.7920   40.5190   26.0790 N   0  0  0  0  0  0  0  0  0  0  0  0
   43.2930   40.4140   29.7010 P   0  0  0  0  0  0  0  0  0  0  0  0
   41.0650   42.2080   31.1360 O   0  0  0  0  0  0  0  0  0  0  0  0
   42.8680   40.0730   26.9390 C   0  0  0  0  0  0  0  0  0  0  0  0
   42.6590   39.8070   30.9840 O   0  0  0  0  0  0  0  0  0  0  0  0
   43.0140   43.2610   32.2760 O   0  0  0  0  0  0  0  0  0  0  0  0
   42.1950   44.1700   30.1300 O   0  0  0  0  0  0  0  0  0  0  0  0
  1  9  1  0
  1 12  1  0
  2  8  1  0
  3  1  1  0
  4  6  1  0
  6  2  1  0
  7  4  1  0
  7 10  1  0
  8  5  2  0
  8  3  1  0
  8 11  1  0
 10  2  1  0
 13  1  2  0
M  END
$$$$

     RDKit          3D

  5  4  0  0  0  0  0  0  0  0999 V2000
   43.8140   40.3410   31.2230 O   0  0  0  0  0  0  0  0  0  0  0  0
   42.7650   40.8480   30.3000 P   0  0  0  0  0  0  0  0  0  0  0  0
   42.8590   41.8520   29.4910 O   0  0  0  0  0  0  0  0  0  0  0  0
   41.6150   41.1150   31.2070 O   0  0  0  0  0  0  0  0  0  0  0  0
   42.7450   39.9240   29.0750 O   0  0  0  0  0  0  0  0  0  0  0  0
  2  4  1  0
  2  1  1  0
  3  2  1  0
  5  2  2  0
M  END
$$$$

     RDKit          3D

 15 15  0  0  0  0  0  0  0  0999 V2000
   40.7560   42.5720   32.2300 N   0  0  0  0  0  0  0  0  0  0  0  0
   41.1230   43.7910   29.0850 S   0  0  0  0  0  0  0  0  0  0  0  0
   42.7590   42.0700   27.5150 C   0  0  0  0  0  0  0  0  0  0  0  0
   42.6580   40.3540   29.9700 C   0  0  0  0  0  0  0  0  0  0  0  0
   43.0620   40.5930   31.0520 O   0  0  0  0  0  0  0  0  0  0  0  0
   40.9880   42.8170   27.6220 C   0  0  0  0  0  0  0  0  0  0  0  0
   43.0650   41.2640   28.6950 C   0  0  0  0  0  0  0  0  0  0  0  0
   42.0780   43.0980   30.2170 C   0  0  0  0  0  0  0  0  0  0  0  0
   44.4950   42.8310   28.5390 O   0  0  0  0  0  0  0  0  0  0  0  0
   42.1470   40.7410   26.9230 C   0  0  0  0  0  0  0  0  0  0  0  0
   41.0900   42.1010   31.1010 C   0  0  0  0  0  0  0  0  0  0  0  0
   43.4350   42.6720   29.3890 C   0  0  0  0  0  0  0  0  0  0  0  0
   42.1900   39.3790   29.9880 O   0  0  0  0  0  0  0  0  0  0  0  0
   40.5770   43.4730   26.3620 C   0  0  0  0  0  0  0  0  0  0  0  0
   43.5690   42.8230   26.8880 C   0  0  0  0  0  0  0  0  0  0  0  0
  2  8  1  0
  3  6  1  0
  3  7  1  0
  4 13  2  0
  4  5  1  0
  6 14  1  0
  6  2  1  0
  7 12  1  0
  7  4  1  0
  8 11  1  0
 10  3  1  0
 11  1  1  0
 12  9  1  0
 12  8  1  0
 15  3  1  0
M  END
$$$$

     RDKit          3D

 20 21  0  0  0  0  0  0  0  0999 V2000
   39.2110   37.6240   30.8140 C   0  0  0  0  0  0  0  0  0  0  0  0
   37.3430   41.4410   28.8710 C   0  0  0  0  0  0  0  0  0  0  0  0
   39.3700   40.3060   27.7470 C   0  0  0  0  0  0  0  0  0  0  0  0
   43.1050   40.6480   30.8090 C   0  0  0  0  0  0  0  0  0  0  0  0
   41.8280   42.9690   29.4880 O   0  0  0  0  0  0  0  0  0  0  0  0
   40.4160   41.1340   27.1590 N   0  0  0  0  0  0  0  0  0  0  0  0
   38.7730   40.9750   28.9680 C   0  0  0  0  0  0  0  0  0  0  0  0
   41.2430   40.2230   29.2940 N   0  0  0  0  0  0  0  0  0  0  0  0
   42.3230   42.2150   28.3850 C   0  0  0  0  0  0  0  0  0  0  0  0
   42.7900   39.8900   33.1790 C   0  0  0  0  0  0  0  0  0  0  0  0
   39.1490   39.2180   27.3220 O   0  0  0  0  0  0  0  0  0  0  0  0
   40.9210   39.2550   31.6140 C   0  0  0  0  0  0  0  0  0  0  0  0
   41.2850   41.0980   28.2340 C   0  0  0  0  0  0  0  0  0  0  0  0
   41.7790   38.9310   32.8200 O   0  0  0  0  0  0  0  0  0  0  0  0
   38.7660   39.8700   29.9880 N   0  0  0  0  0  0  0  0  0  0  0  0
   43.7920   40.1090   32.0430 C   0  0  0  0  0  0  0  0  0  0  0  0
   39.7940   38.9410   30.5370 C   0  0  0  0  0  0  0  0  0  0  0  0
   36.6950   40.5420   27.9060 O   0  0  0  0  0  0  0  0  0  0  0  0
   41.7110   40.0070   30.5780 C   0  0  0  0  0  0  0  0  0  0  0  0
   42.4110   42.7820   26.9670 C   0  0  0  0  0  0  0  0  0  0  0  0
  3  7  1  0
  4 16  1  0
  6  3  1  0
  6 13  2  0
  7  2  1  0
  7 15  1  0
  8 19  1  0
  9 20  1  0
  9  5  1  0
 11  3  2  0
 12 14  1  0
 13  9  1  0
 13  8  1  0
 14 10  1  0
 15 17  1  0
 16 10  1  0
 17  1  1  0
 17 12  1  0
 18  2  1  0
 19  4  1  0
 19 12  2  0
M  END
$$$$

     RDKit          3D

  6  6  0  0  0  0  0  0  0  0999 V2000
   43.1840   40.1670   27.4390 C   0  0  0  0  0  0  0  0  0  0  0  0
   42.9440   42.6540   27.4770 C   0  0  0  0  0  0  0  0  0  0  0  0
   43.4950   40.1320   28.9450 C   0  0  0  0  0  0  0  0  0  0  0  0
   42.6160   41.1830   29.6550 C   0  0  0  0  0  0  0  0  0  0  0  0
   41.5930   41.8830   28.4790 S   0  0  0  0  0  0  0  0  0  0  0  0
   43.6720   41.4950   26.8630 C   0  0  0  0  0  0  0  0  0  0  0  0
  1  3  1  0
  2  5  1  0
  3  4  1  0
  5  4  1  0
  6  1  1  0
  6  2  1  0
M  END
$$$$

     RDKit          3D

  7  7  0  0  0  0  0  0  0  0999 V2000
   44.2300   41.7060   30.7530 C   0  0  0  0  0  0  0  0  0  0  0  0
   42.9360   42.3920   30.4670 O   0  0  0  0  0  0  0  0  0  0  0  0
   43.0750   40.6420   28.9810 C   0  0  0  0  0  0  0  0  0  0  0  0
   44.4610   40.6410   29.6000 C   0  0  0  0  0  0  0  0  0  0  0  0
   42.2560   41.8350   29.3800 C   0  0  0  0  0  0  0  0  0  0  0  0
   41.3320   42.1820   28.7730 O   0  0  0  0  0  0  0  0  0  0  0  0
   42.5280   39.7300   28.4830 N   0  0  0  0  0  0  0  0  0  0  0  0
  2  1  1  0
  3  5  1  0
  3  4  1  0
  4  1  1  0
  5  2  1  0
  6  5  2  0
  7  3  2  0
M  END
$$$$

     RDKit          3D

 21 22  0  0  0  0  0  0  0  0999 V2000
   42.2710   39.3400   32.6160 C   0  0  0  0  0  0  0  0  0  0  0  0
   39.6480   39.2520   29.3320 O   0  0  0  0  0  0  0  0  0  0  0  0
   38.5590   40.1560   27.5560 C   0  0  0  0  0  0  0  0  0  0  0  0
   38.4490   40.5160   26.2200 C   0  0  0  0  0  0  0  0  0  0  0  0
   42.0050   40.6560   33.4100 C   0  0  0  0  0  0  0  0  0  0  0  0
   42.1440   41.2490   31.1290 C   0  0  0  0  0  0  0  0  0  0  0  0
   43.3220   40.4690   28.5940 C   0  0  0  0  0  0  0  0  0  0  0  0
   40.6350   41.3920   33.1180 C   0  0  0  0  0  0  0  0  0  0  0  0
   41.4060   41.3700   29.9020 C   0  0  0  0  0  0  0  0  0  0  0  0
   40.8310   42.6520   29.4300 C   0  0  0  0  0  0  0  0  0  0  0  0
   40.7140   40.6250   26.2770 C   0  0  0  0  0  0  0  0  0  0  0  0
   39.6380   39.9620   28.2130 C   0  0  0  0  0  0  0  0  0  0  0  0
   42.9960   42.1660   31.7530 C   0  0  0  0  0  0  0  0  0  0  0  0
   41.8390   40.6770   28.7400 N   0  0  0  0  0  0  0  0  0  0  0  0
   43.0200   41.7660   33.2710 C   0  0  0  0  0  0  0  0  0  0  0  0
   39.5980   40.6640   25.5340 C   0  0  0  0  0  0  0  0  0  0  0  0
   40.1390   41.4740   31.7480 C   0  0  0  0  0  0  0  0  0  0  0  0
   42.0480   40.9900   25.4590 C   0  0  0  0  0  0  0  0  0  0  0  0
   42.6920   39.7430   31.1950 C   0  0  0  0  0  0  0  0  0  0  0  0
   40.8130   40.4610   27.7010 C   0  0  0  0  0  0  0  0  0  0  0  0
   41.9680   40.2170   34.9030 C   0  0  0  0  0  0  0  0  0  0  0  0
  1  5  1  0
  3 12  1  0
  4  3  2  0
  5 21  1  0
  6  9  1  0
  6 19  1  0
  6 13  1  0
  7 14  1  0
  8  5  1  0
  9 10  1  0
 11 20  1  0
 12  2  1  0
 13 15  1  0
 14  9  1  0
 15  5  1  0
 16  4  1  0
 16 11  2  0
 17  8  1  0
 18 11  1  0
 19  1  1  0
 20 12  2  0
 20 14  1  0
M  END
$$$$

     RDKit          3D

 22 23  0  0  0  0  0  0  0  0999 V2000
   39.8440   40.4240   31.8120 O   0  0  0  0  0  0  0  0  0  0  0  0
   40.7190   39.6940   30.9220 C   0  0  0  0  0  0  0  0  0  0  0  0
   39.9100   39.7910   27.9300 C   0  0  0  0  0  0  0  0  0  0  0  0
   42.8880   40.2700   32.2160 C   0  0  0  0  0  0  0  0  0  0  0  0
   42.0730   40.3120   30.9820 C   0  0  0  0  0  0  0  0  0  0  0  0
   39.1220   42.5280   28.1640 C   0  0  0  0  0  0  0  0  0  0  0  0
   39.0680   42.5690   25.7900 C   0  0  0  0  0  0  0  0  0  0  0  0
   39.6940   40.4620   26.6210 C   0  0  0  0  0  0  0  0  0  0  0  0
   38.5950   39.8370   25.9610 O   0  0  0  0  0  0  0  0  0  0  0  0
   42.8290   40.8720   29.9670 C   0  0  0  0  0  0  0  0  0  0  0  0
   41.2550   38.4640   31.6520 C   0  0  0  0  0  0  0  0  0  0  0  0
   42.1390   40.6250   27.6510 N   0  0  0  0  0  0  0  0  0  0  0  0
   44.3490   40.1580   32.3040 C   0  0  0  0  0  0  0  0  0  0  0  0
   38.7480   43.1800   24.7300 C   0  0  0  0  0  0  0  0  0  0  0  0
   39.3050   41.8780   26.8150 C   0  0  0  0  0  0  0  0  0  0  0  0
   39.2720   38.9310   28.5100 O   0  0  0  0  0  0  0  0  0  0  0  0
   41.0870   40.2310   28.4450 N   0  0  0  0  0  0  0  0  0  0  0  0
   42.1920   39.0440   32.6550 N   0  0  0  0  0  0  0  0  0  0  0  0
   42.9600   40.0030   26.6210 C   0  0  0  0  0  0  0  0  0  0  0  0
   40.1300   37.5180   32.0790 C   0  0  0  0  0  0  0  0  0  0  0  0
   42.1170   40.7300   28.7640 C   0  0  0  0  0  0  0  0  0  0  0  0
   45.4810   40.5320   31.8550 C   0  0  0  0  0  0  0  0  0  0  0  0
  2  5  1  0
  2 11  1  0
  2  1  1  0
  3 17  1  0
  3 16  2  0
  4 13  1  0
  4 18  1  0
  5 10  1  0
  5  4  1  0
  7 15  1  0
  8  9  1  0
  8 15  1  0
  8  3  1  0
 11 20  1  0
 11 18  1  0
 12 17  1  0
 12 21  1  0
 14  7  3  0
 15  6  1  0
 17 21  1  0
 19 12  1  0
 21 10  1  0
 22 13  2  0
M  END
$$$$

     RDKit          3D

 18 20  0  0  0  0  0  0  0  0999 V2000
   45.6600   40.2900   31.8710 O   0  0  0  0  0  0  0  0  0  0  0  0
   41.2290   40.3870   26.0320 C   0  0  0  0  0  0  0  0  0  0  0  0
   43.7150   41.2360   30.9930 N   0  0  0  0  0  0  0  0  0  0  0  0
   40.6220   41.1720   27.0540 N   0  0  0  0  0  0  0  0  0  0  0  0
   43.8680   40.3650   29.8110 C   0  0  0  0  0  0  0  0  0  0  0  0
   40.6940   41.1020   29.6220 N   0  0  0  0  0  0  0  0  0  0  0  0
   37.9920   40.4130   24.0430 C   0  0  0  0  0  0  0  0  0  0  0  0
   40.1750   40.8260   24.9380 C   0  0  0  0  0  0  0  0  0  0  0  0
   43.0160   41.1410   28.8570 C   0  0  0  0  0  0  0  0  0  0  0  0
   42.3120   43.0690   31.6070 O   0  0  0  0  0  0  0  0  0  0  0  0
   37.9740   40.5150   23.0310 O   0  0  0  0  0  0  0  0  0  0  0  0
   42.6240   40.1740   26.6800 N   0  0  0  0  0  0  0  0  0  0  0  0
   42.6010   42.1180   30.8760 C   0  0  0  0  0  0  0  0  0  0  0  0
   41.9060   41.8750   29.6060 C   0  0  0  0  0  0  0  0  0  0  0  0
   38.8030   40.2050   25.1730 C   0  0  0  0  0  0  0  0  0  0  0  0
   40.7610   40.5150   28.2560 C   0  0  0  0  0  0  0  0  0  0  0  0
   44.5760   41.1070   32.1620 C   0  0  0  0  0  0  0  0  0  0  0  0
   42.2720   40.0460   28.0900 C   0  0  0  0  0  0  0  0  0  0  0  0
  1 17  1  0
  2 12  1  0
  2  4  2  0
  3 17  1  0
  5  3  1  0
  7 15  1  0
  8 15  1  0
  8  2  1  0
  9 14  1  0
  9  5  1  0
 11  7  2  0
 13  3  1  0
 13 10  2  0
 14  6  1  0
 14 13  1  0
 16  4  1  0
 16  6  1  0
 18 12  1  0
 18 16  1  0
 18  9  1  0
M  END
$$$$

     RDKit          3D

 10 11  0  0  0  0  0  0  0  0999 V2000
   41.5430   42.7450   30.6650 N   0  0  0  0  0  0  0  0  0  0  0  0
   43.7400   39.8450   30.9260 O   0  0  0  0  0  0  0  0  0  0  0  0
   42.2880   43.5310   28.1410 O   0  0  0  0  0  0  0  0  0  0  0  0
   41.8050   41.3830   27.2430 C   0  0  0  0  0  0  0  0  0  0  0  0
   41.2890   41.8580   29.5180 C   0  0  0  0  0  0  0  0  0  0  0  0
   43.0070   40.7110   30.6460 C   0  0  0  0  0  0  0  0  0  0  0  0
   42.4360   40.8990   29.3490 C   0  0  0  0  0  0  0  0  0  0  0  0
   41.2830   42.4950   28.1440 C   0  0  0  0  0  0  0  0  0  0  0  0
   42.5330   40.4660   28.0560 C   0  0  0  0  0  0  0  0  0  0  0  0
   42.2920   41.8010   31.5410 C   0  0  0  0  0  0  0  0  0  0  0  0
  1 10  1  0
  4  9  1  0
  4  8  1  0
  5  1  1  0
  6  2  2  0
  6 10  1  0
  7  9  1  0
  7  5  1  0
  7  6  1  0
  8  3  1  0
  8  5  1  0
M  END
$$$$

     RDKit          3D

  9  9  0  0  0  0  0  0  0  0999 V2000
   42.7810   40.3110   31.3620 C   0  0  0  0  0  0  0  0  0  0  0  0
   44.8240   40.6650   28.2460 N   0  0  0  0  0  0  0  0  0  0  0  0
   42.8470   39.7970   30.0210 O   0  0  0  0  0  0  0  0  0  0  0  0
   42.1770   42.0980   29.8970 C   0  0  0  0  0  0  0  0  0  0  0  0
   40.8860   41.7500   31.8890 O   0  0  0  0  0  0  0  0  0  0  0  0
   41.9490   41.5440   31.2740 C   0  0  0  0  0  0  0  0  0  0  0  0
   43.2930   41.6110   26.7740 N   0  0  0  0  0  0  0  0  0  0  0  0
   42.5700   40.8570   29.0980 C   0  0  0  0  0  0  0  0  0  0  0  0
   43.6010   41.0750   27.9910 C   0  0  0  0  0  0  0  0  0  0  0  0
  3  1  1  0
  4  6  1  0
  6  1  1  0
  6  5  2  0
  7  9  2  0
  8  9  1  0
  8  4  1  0
  8  3  1  0
  9  2  1  0
M  END
$$$$
