
     RDKit          3D

 10 10  0  0  0  0  0  0  0  0999 V2000
   39.3600   40.6340   27.1520 O   0  0  0  0  0  0  0  0  0  0  0  0
   39.7250   38.2150   26.2100 N   0  0  0  0  0  0  0  0  0  0  0  0
   42.3110   39.9570   28.5190 P   0  0  0  0  0  0  0  0  0  0  0  0
   38.2460   39.7790   27.4250 C   0  0  0  0  0  0  0  0  0  0  0  0
   43.4130   39.0620   29.2020 O   0  0  0  0  0  0  0  0  0  0  0  0
   40.6220   38.4220   29.3850 O   0  0  0  0  0  0  0  0  0  0  0  0
   39.7380   39.1660   27.1240 C   0  0  0  0  0  0  0  0  0  0  0  0
   40.8200   38.9260   28.3470 C   0  0  0  0  0  0  0  0  0  0  0  0
   42.8710   40.4320   27.0510 O   0  0  0  0  0  0  0  0  0  0  0  0
   42.2740   41.2180   29.4650 O   0  0  0  0  0  0  0  0  0  0  0  0
  1  4  1  0
  3  5  1  0
  3 10  1  0
  7  2  1  0
  7  1  1  0
  7  4  1  0
  7  8  1  0
  8  3  1  0
  8  6  2  0
  9  3  2  0
M  END
$$$$

     RDKit          3D

  9  8  0  0  0  0  0  0  0  0999 V2000
   43.9180   39.5160   29.5950 O   0  0  0  0  0  0  0  0  0  0  0  0
   42.0960   39.0980   28.1870 C   0  0  0  0  0  0  0  0  0  0  0  0
   42.6840   39.2530   29.5850 C   0  0  0  0  0  0  0  0  0  0  0  0
   41.9500   39.1390   30.6010 O   0  0  0  0  0  0  0  0  0  0  0  0
   39.0110   38.1220   26.9370 O   0  0  0  0  0  0  0  0  0  0  0  0
   38.8570   39.2350   27.4760 C   0  0  0  0  0  0  0  0  0  0  0  0
   38.1180   40.1620   27.0080 O   0  0  0  0  0  0  0  0  0  0  0  0
   40.9370   40.0820   28.0520 C   0  0  0  0  0  0  0  0  0  0  0  0
   39.6740   39.5100   28.7120 C   0  0  0  0  0  0  0  0  0  0  0  0
  2  3  1  0
  3  1  2  0
  3  4  1  0
  5  6  2  0
  6  9  1  0
  7  6  1  0
  8  2  1  0
  8  9  1  0
M  END
$$$$

     RDKit          3D

 10 10  0  0  0  0  0  0  0  0999 V2000
   36.6020   42.4760   25.9960 N   0  0  0  0  0  0  0  0  0  0  0  0
   37.8570   42.5720   26.6390 C   0  0  0  0  0  0  0  0  0  0  0  0
   37.4980   39.9880   26.3440 S   0  0  0  0  0  0  0  0  0  0  0  0
   39.6480   38.8070   28.2510 N   0  0  0  0  0  0  0  0  0  0  0  0
   39.7460   40.9870   27.0950 N   0  0  0  0  0  0  0  0  0  0  0  0
   41.6690   40.1220   28.1120 C   0  0  0  0  0  0  0  0  0  0  0  0
   38.4840   41.1700   26.8670 C   0  0  0  0  0  0  0  0  0  0  0  0
   40.6170   38.2060   29.1120 N   0  0  0  0  0  0  0  0  0  0  0  0
   41.8180   38.9950   29.1170 C   0  0  0  0  0  0  0  0  0  0  0  0
   40.2880   39.9870   27.7770 C   0  0  0  0  0  0  0  0  0  0  0  0
  1  2  1  0
  2  7  1  0
  3  7  2  0
  4  8  1  0
  5 10  1  0
  6  9  2  0
  7  5  1  0
  8  9  1  0
 10  6  1  0
 10  4  2  0
M  END
$$$$

     RDKit          3D

 17 18  0  0  0  0  0  0  0  0999 V2000
   39.7620   40.9990   27.1400 C   0  0  0  0  0  0  0  0  0  0  0  0
   41.2050   38.9520   28.4260 N   0  0  0  0  0  0  0  0  0  0  0  0
   37.7880   43.3820   25.9550 C   0  0  0  0  0  0  0  0  0  0  0  0
   38.6090   39.6270   25.4350 C   0  0  0  0  0  0  0  0  0  0  0  0
   40.2460   39.5320   27.4590 C   0  0  0  0  0  0  0  0  0  0  0  0
   38.5400   40.8980   26.2430 C   0  0  0  0  0  0  0  0  0  0  0  0
   37.1760   39.5830   24.6520 C   0  0  0  0  0  0  0  0  0  0  0  0
   38.3580   42.1140   25.3140 C   0  0  0  0  0  0  0  0  0  0  0  0
   39.4590   37.5910   26.5870 O   0  0  0  0  0  0  0  0  0  0  0  0
   41.8520   39.8070   29.4590 C   0  0  0  0  0  0  0  0  0  0  0  0
   42.3160   38.8790   30.5100 N   0  0  0  0  0  0  0  0  0  0  0  0
   40.9310   42.0800   27.0640 C   0  0  0  0  0  0  0  0  0  0  0  0
   40.4180   38.1240   29.4110 C   0  0  0  0  0  0  0  0  0  0  0  0
   39.4850   38.8390   26.4680 C   0  0  0  0  0  0  0  0  0  0  0  0
   37.4800   40.6020   27.1420 O   0  0  0  0  0  0  0  0  0  0  0  0
   42.0970   41.4470   26.5870 O   0  0  0  0  0  0  0  0  0  0  0  0
   41.2500   37.7250   30.4610 C   0  0  0  0  0  0  0  0  0  0  0  0
  1 12  1  0
  1  5  1  0
  2 13  1  0
  2 10  1  0
  4  7  1  0
  4  6  1  0
  4 14  1  0
  5 14  1  0
  5  2  1  0
  6  1  1  0
  6 15  1  0
  8  3  1  0
  8  6  1  0
 10 11  1  0
 13 17  1  0
 14  9  2  0
 16 12  1  0
 17 11  1  0
M  END
$$$$

     RDKit          3D

  8  7  0  0  0  0  0  0  0  0999 V2000
   39.8550   40.5870   27.7720 C   0  0  0  0  0  0  0  0  0  0  0  0
   40.1840   38.4160   28.5840 O   0  0  0  0  0  0  0  0  0  0  0  0
   38.9240   38.4510   26.7030 O   0  0  0  0  0  0  0  0  0  0  0  0
   42.5140   41.2540   28.4190 O   0  0  0  0  0  0  0  0  0  0  0  0
   38.6840   39.8240   27.1050 C   0  0  0  0  0  0  0  0  0  0  0  0
   41.7580   40.3060   29.1600 C   0  0  0  0  0  0  0  0  0  0  0  0
   40.8780   39.5740   28.1650 C   0  0  0  0  0  0  0  0  0  0  0  0
   42.9490   39.2050   29.9170 S   0  0  0  0  0  0  0  0  0  0  0  0
  1  7  1  0
  3  5  1  0
  5  1  1  0
  6  4  1  0
  6  8  1  0
  7  2  1  0
  7  6  1  0
M  END
$$$$

     RDKit          3D

 14 15  0  0  0  0  0  0  0  0999 V2000
   41.4840   38.7790   30.3420 N   0  0  0  0  0  0  0  0  0  0  0  0
   38.2180   40.3720   26.6360 C   0  0  0  0  0  0  0  0  0  0  0  0
   42.5770   39.7820   29.6190 C   0  0  0  0  0  0  0  0  0  0  0  0
   42.1750   38.9770   27.5010 O   0  0  0  0  0  0  0  0  0  0  0  0
   39.6700   38.2430   29.9090 N   0  0  0  0  0  0  0  0  0  0  0  0
   42.0890   41.0860   29.0960 C   0  0  0  0  0  0  0  0  0  0  0  0
   43.9570   39.9440   30.1980 O   0  0  0  0  0  0  0  0  0  0  0  0
   39.3440   39.5580   27.1830 C   0  0  0  0  0  0  0  0  0  0  0  0
   39.9460   39.9710   28.0420 C   0  0  0  0  0  0  0  0  0  0  0  0
   39.5900   38.5050   26.3950 N   0  0  0  0  0  0  0  0  0  0  0  0
   41.6490   39.9990   28.3530 C   0  0  0  0  0  0  0  0  0  0  0  0
   40.7040   37.7720   30.0410 C   0  0  0  0  0  0  0  0  0  0  0  0
   38.7100   38.5900   25.2970 C   0  0  0  0  0  0  0  0  0  0  0  0
   37.7400   39.5840   25.6370 N   0  0  0  0  0  0  0  0  0  0  0  0
  2  8  1  0
  3  7  1  0
  3  1  1  0
  5 12  1  0
  6  3  1  0
  8  9  1  0
  9 11  1  0
 10  8  1  0
 11  4  1  0
 11  6  1  0
 11  3  1  0
 12  1  1  0
 13 14  1  0
 13 10  1  0
 14  2  1  0
M  END
$$$$

     RDKit          3D

  9  8  0  0  0  0  0  0  0  0999 V2000
   39.2130   40.0150   26.2380 S   0  0  0  0  0  0  0  0  0  0  0  0
   40.4030   39.8330   28.1870 C   0  0  0  0  0  0  0  0  0  0  0  0
   37.7460   39.9140   26.0110 O   0  0  0  0  0  0  0  0  0  0  0  0
   39.3030   38.8870   27.6550 C   0  0  0  0  0  0  0  0  0  0  0  0
   41.7200   39.0430   28.2640 C   0  0  0  0  0  0  0  0  0  0  0  0
   40.0840   39.5660   25.2920 O   0  0  0  0  0  0  0  0  0  0  0  0
   42.0560   38.7330   29.4370 O   0  0  0  0  0  0  0  0  0  0  0  0
   39.4440   37.7790   28.4960 O   0  0  0  0  0  0  0  0  0  0  0  0
   39.5230   41.5920   26.3710 O   0  0  0  0  0  0  0  0  0  0  0  0
  1  9  1  0
  1  4  1  0
  2  5  1  0
  3  1  1  0
  4  2  1  0
  4  8  2  0
  5  7  1  0
  6  1  1  0
M  END
$$$$

     RDKit          3D

 20 21  0  0  0  0  0  0  0  0999 V2000
   39.2430   38.2460   25.7590 C   0  0  0  0  0  0  0  0  0  0  0  0
   42.2120   41.9630   28.0870 C   0  0  0  0  0  0  0  0  0  0  0  0
   38.2480   39.8480   27.2170 C   0  0  0  0  0  0  0  0  0  0  0  0
   38.7270   37.3990   29.3510 C   0  0  0  0  0  0  0  0  0  0  0  0
   39.2680   38.9460   26.9700 C   0  0  0  0  0  0  0  0  0  0  0  0
   39.4430   39.7170   29.9300 O   0  0  0  0  0  0  0  0  0  0  0  0
   39.8940   36.7250   29.4130 N   0  0  0  0  0  0  0  0  0  0  0  0
   43.5100   42.6490   28.0190 C   0  0  0  0  0  0  0  0  0  0  0  0
   42.5430   40.5770   27.9100 C   0  0  0  0  0  0  0  0  0  0  0  0
   41.6440   39.2400   27.6760 C   0  0  0  0  0  0  0  0  0  0  0  0
   36.0090   39.1680   24.5280 F   0  0  0  0  0  0  0  0  0  0  0  0
   39.3310   38.8340   29.1520 C   0  0  0  0  0  0  0  0  0  0  0  0
   44.5750   41.7140   28.2450 C   0  0  0  0  0  0  0  0  0  0  0  0
   43.9450   40.4770   28.1610 N   0  0  0  0  0  0  0  0  0  0  0  0
   38.1380   38.2500   24.9800 C   0  0  0  0  0  0  0  0  0  0  0  0
   40.2400   38.7480   27.9770 N   0  0  0  0  0  0  0  0  0  0  0  0
   39.6130   35.3740   29.3940 F   0  0  0  0  0  0  0  0  0  0  0  0
   41.0450   36.9290   30.2830 C   0  0  0  0  0  0  0  0  0  0  0  0
   37.1070   39.1430   25.2610 C   0  0  0  0  0  0  0  0  0  0  0  0
   37.2060   40.0080   26.3350 C   0  0  0  0  0  0  0  0  0  0  0  0
  1  5  1  0
  4  7  1  0
  5  3  2  0
  5 16  1  0
  7 18  1  0
  8  2  1  0
  8 13  1  0
  9 10  1  0
  9  2  1  0
  9 14  1  0
 10 16  1  0
 11 19  1  0
 12  4  1  0
 12  6  2  0
 14 13  1  0
 15 19  1  0
 15  1  2  0
 16 12  1  0
 17  7  1  0
 19 20  2  0
 20  3  1  0
M  END
$$$$

     RDKit          3D

 15 15  0  0  0  0  0  0  0  0999 V2000
   41.1140   39.4550   30.1970 C   0  0  0  0  0  0  0  0  0  0  0  0
   38.6690   39.0480   26.1330 C   0  0  0  0  0  0  0  0  0  0  0  0
   36.4620   39.1660   24.1040 C   0  0  0  0  0  0  0  0  0  0  0  0
   37.7790   40.0390   26.0060 C   0  0  0  0  0  0  0  0  0  0  0  0
   42.6820   39.4040   26.9040 O   0  0  0  0  0  0  0  0  0  0  0  0
   42.3040   38.9530   28.2010 C   0  0  0  0  0  0  0  0  0  0  0  0
   36.5820   40.0260   25.2130 N   0  0  0  0  0  0  0  0  0  0  0  0
   41.2850   39.9390   28.7530 C   0  0  0  0  0  0  0  0  0  0  0  0
   39.3980   41.3830   27.2880 C   0  0  0  0  0  0  0  0  0  0  0  0
   37.9680   41.2980   26.7810 C   0  0  0  0  0  0  0  0  0  0  0  0
   38.8590   38.0270   25.0720 S   0  0  0  0  0  0  0  0  0  0  0  0
   39.6970   39.0240   27.0260 N   0  0  0  0  0  0  0  0  0  0  0  0
   41.4990   38.0310   30.3320 N   0  0  0  0  0  0  0  0  0  0  0  0
   39.8890   40.0950   28.0260 C   0  0  0  0  0  0  0  0  0  0  0  0
   35.4360   40.8210   25.6020 C   0  0  0  0  0  0  0  0  0  0  0  0
  1 13  1  0
  2 12  1  0
  3  7  1  0
  4  7  1  0
  4  2  1  0
  4 10  1  0
  5  6  1  0
  7 15  1  0
  8  6  1  0
  8  1  1  0
  9 14  1  0
 10  9  1  0
 11  2  2  0
 12 14  1  0
 14  8  1  0
M  END
$$$$

     RDKit          3D

 15 15  0  0  0  0  0  0  0  0999 V2000
   39.0870   37.9260   26.8480 O   0  0  0  0  0  0  0  0  0  0  0  0
   41.8600   39.8910   29.3450 C   0  0  0  0  0  0  0  0  0  0  0  0
   39.3400   42.0450   26.9100 C   0  0  0  0  0  0  0  0  0  0  0  0
   42.9650   40.5750   27.1480 N   0  0  0  0  0  0  0  0  0  0  0  0
   40.3020   38.0770   29.1550 C   0  0  0  0  0  0  0  0  0  0  0  0
   37.3650   42.2330   25.5800 O   0  0  0  0  0  0  0  0  0  0  0  0
   42.1700   38.0170   30.7840 N   0  0  0  0  0  0  0  0  0  0  0  0
   40.2680   41.2740   27.5980 C   0  0  0  0  0  0  0  0  0  0  0  0
   39.1070   39.2480   26.8990 C   0  0  0  0  0  0  0  0  0  0  0  0
   42.8430   40.6710   28.5820 C   0  0  0  0  0  0  0  0  0  0  0  0
   40.7790   37.8850   30.5260 C   0  0  0  0  0  0  0  0  0  0  0  0
   40.9920   39.1360   28.4430 N   0  0  0  0  0  0  0  0  0  0  0  0
   38.1230   40.0400   26.2570 C   0  0  0  0  0  0  0  0  0  0  0  0
   40.1590   39.8820   27.5390 C   0  0  0  0  0  0  0  0  0  0  0  0
   38.2660   41.4350   26.2590 C   0  0  0  0  0  0  0  0  0  0  0  0
  1  9  1  0
  3  8  1  0
  4 10  1  0
  5 11  1  0
  6 15  1  0
  9 14  1  0
 10  2  1  0
 11  7  1  0
 12  5  1  0
 12  2  1  0
 13 15  1  0
 13  9  2  0
 14  8  2  0
 14 12  1  0
 15  3  2  0
M  END
$$$$

     RDKit          3D

  9  8  0  0  0  0  0  0  0  0999 V2000
   40.1160   38.5720   29.2680 O   0  0  0  0  0  0  0  0  0  0  0  0
   41.2580   40.7180   29.6100 O   0  0  0  0  0  0  0  0  0  0  0  0
   40.0530   39.2890   27.9710 C   0  0  0  0  0  0  0  0  0  0  0  0
   42.1300   40.0780   28.8870 C   0  0  0  0  0  0  0  0  0  0  0  0
   38.6130   38.5800   25.8860 S   0  0  0  0  0  0  0  0  0  0  0  0
   41.5420   39.4120   27.6200 C   0  0  0  0  0  0  0  0  0  0  0  0
   38.2560   40.1260   26.0310 O   0  0  0  0  0  0  0  0  0  0  0  0
   39.4690   38.3040   27.2040 N   0  0  0  0  0  0  0  0  0  0  0  0
   43.3230   39.8320   29.1760 O   0  0  0  0  0  0  0  0  0  0  0  0
  3  1  1  0
  4  9  2  0
  4  2  1  0
  5  7  2  0
  5  8  1  0
  6  3  1  0
  6  4  1  0
  8  3  1  0
M  END
$$$$

     RDKit          3D

  8  7  0  0  0  0  0  0  0  0999 V2000
   41.0850   38.3770   29.3990 C   0  0  0  0  0  0  0  0  0  0  0  0
   39.2090   39.4870   27.7050 C   0  0  0  0  0  0  0  0  0  0  0  0
   40.0590   37.7830   29.8140 N   0  0  0  0  0  0  0  0  0  0  0  0
   39.6630   39.7300   25.2920 N   0  0  0  0  0  0  0  0  0  0  0  0
   38.7440   41.6770   26.4690 C   0  0  0  0  0  0  0  0  0  0  0  0
   42.2550   38.3380   30.0920 N   0  0  0  0  0  0  0  0  0  0  0  0
   41.0690   39.2180   27.8840 S   0  0  0  0  0  0  0  0  0  0  0  0
   38.7330   40.1480   26.3770 C   0  0  0  0  0  0  0  0  0  0  0  0
  1  3  2  0
  1  6  1  0
  2  7  1  0
  4  8  1  0
  7  1  1  0
  8  5  1  0
  8  2  1  0
M  END
$$$$

     RDKit          3D

  9  8  0  0  0  0  0  0  0  0999 V2000
   40.2500   39.4430   27.5550 C   0  0  0  0  0  0  0  0  0  0  0  0
   39.4280   38.9970   28.7750 C   0  0  0  0  0  0  0  0  0  0  0  0
   42.0030   39.1230   29.8270 C   0  0  0  0  0  0  0  0  0  0  0  0
   39.9200   37.7790   29.6430 C   0  0  0  0  0  0  0  0  0  0  0  0
   41.4510   41.6380   26.6100 N   0  0  0  0  0  0  0  0  0  0  0  0
   41.7190   40.2680   29.0430 O   0  0  0  0  0  0  0  0  0  0  0  0
   38.6620   41.5060   26.5340 S   0  0  0  0  0  0  0  0  0  0  0  0
   41.3700   37.7490   30.0910 N   0  0  0  0  0  0  0  0  0  0  0  0
   40.2510   40.9590   27.2650 C   0  0  0  0  0  0  0  0  0  0  0  0
  1  2  1  0
  2  4  1  0
  3  8  1  0
  4  8  1  0
  5  9  1  0
  6  3  1  0
  9  7  1  0
  9  1  1  0
M  END
$$$$

     RDKit          3D

 18 19  0  0  0  0  0  0  0  0999 V2000
   39.0580   38.0880   26.3380 N   0  0  0  0  0  0  0  0  0  0  0  0
   39.6900   40.8320   24.1660 C   0  0  0  0  0  0  0  0  0  0  0  0
   39.4440   36.9790   29.6820 C   0  0  0  0  0  0  0  0  0  0  0  0
   38.5100   40.7420   26.6670 C   0  0  0  0  0  0  0  0  0  0  0  0
   42.2330   38.9370   30.6340 C   0  0  0  0  0  0  0  0  0  0  0  0
   38.9660   38.0180   28.8050 N   0  0  0  0  0  0  0  0  0  0  0  0
   39.2230   38.6990   27.6290 C   0  0  0  0  0  0  0  0  0  0  0  0
   40.6040   37.4630   30.4800 C   0  0  0  0  0  0  0  0  0  0  0  0
   40.6520   40.4690   28.3330 C   0  0  0  0  0  0  0  0  0  0  0  0
   38.2470   40.7780   24.3150 O   0  0  0  0  0  0  0  0  0  0  0  0
   37.8330   37.9130   24.1980 C   0  0  0  0  0  0  0  0  0  0  0  0
   37.8190   40.0850   25.4870 C   0  0  0  0  0  0  0  0  0  0  0  0
   38.2600   42.2270   26.7760 C   0  0  0  0  0  0  0  0  0  0  0  0
   41.7320   39.4070   28.3320 C   0  0  0  0  0  0  0  0  0  0  0  0
   38.2910   38.6400   25.3390 C   0  0  0  0  0  0  0  0  0  0  0  0
   41.4380   38.4030   29.5210 N   0  0  0  0  0  0  0  0  0  0  0  0
   39.4120   40.0280   27.6420 N   0  0  0  0  0  0  0  0  0  0  0  0
   37.1260   42.5090   25.8180 C   0  0  0  0  0  0  0  0  0  0  0  0
  1  7  2  0
  2 10  1  0
  3  8  1  0
  4 13  1  0
  4 17  1  0
  6  3  1  0
  7 17  1  0
  7  6  1  0
 12 10  1  0
 12  4  1  0
 14  9  1  0
 14 16  1  0
 15 11  1  0
 15 12  1  0
 15  1  1  0
 16  8  1  0
 16  5  1  0
 17  9  1  0
 18 13  1  0
M  END
$$$$

     RDKit          3D

 10 10  0  0  0  0  0  0  0  0999 V2000
   41.9370   38.7380   28.6100 O   0  0  0  0  0  0  0  0  0  0  0  0
   39.4940   41.7660   26.8200 C   0  0  0  0  0  0  0  0  0  0  0  0
   38.0220   40.0040   27.5700 O   0  0  0  0  0  0  0  0  0  0  0  0
   41.3730   40.2320   27.3720 C   0  0  0  0  0  0  0  0  0  0  0  0
   39.1790   37.6090   27.3610 O   0  0  0  0  0  0  0  0  0  0  0  0
   40.3610   39.1640   28.1760 C   0  0  0  0  0  0  0  0  0  0  0  0
   38.6690   40.5170   26.9240 C   0  0  0  0  0  0  0  0  0  0  0  0
   39.5870   39.1880   26.7380 C   0  0  0  0  0  0  0  0  0  0  0  0
   41.0780   41.7840   27.6200 O   0  0  0  0  0  0  0  0  0  0  0  0
   39.0760   42.9690   26.8310 O   0  0  0  0  0  0  0  0  0  0  0  0
  2 10  2  0
  2  7  1  0
  2  9  1  0
  4  9  1  0
  4  6  1  0
  6  1  1  0
  7  3  1  0
  8  7  1  0
  8  5  1  0
  8  6  1  0
M  END
$$$$

     RDKit          3D

  6  5  0  0  0  0  0  0  0  0999 V2000
   40.1120   39.5470   27.7440 C   0  0  0  0  0  0  0  0  0  0  0  0
   38.8460   38.7020   27.8850 C   0  0  0  0  0  0  0  0  0  0  0  0
   41.0400   39.6380   28.9810 C   0  0  0  0  0  0  0  0  0  0  0  0
   41.9040   38.8940   29.3650 O   0  0  0  0  0  0  0  0  0  0  0  0
   37.9690   38.8060   26.5450 C   0  0  0  0  0  0  0  0  0  0  0  0
   39.6530   40.9780   27.4260 C   0  0  0  0  0  0  0  0  0  0  0  0
  1  6  1  0
  1  2  1  0
  1  3  1  0
  3  4  2  0
  5  2  1  0
M  END
$$$$

     RDKit          3D

 29 32  0  0  0  0  0  0  0  0999 V2000
   37.6240   31.4550   33.8160 C   0  0  0  0  0  0  0  0  0  0  0  0
   40.5660   37.7290   29.1760 N   0  0  0  0  0  0  0  0  0  0  0  0
   35.8410   40.9370   23.7560 C   0  0  0  0  0  0  0  0  0  0  0  0
   38.6220   38.3800   30.2810 O   0  0  0  0  0  0  0  0  0  0  0  0
   39.4710   39.9540   26.5200 C   0  0  0  0  0  0  0  0  0  0  0  0
   37.1300   36.3860   31.2330 O   0  0  0  0  0  0  0  0  0  0  0  0
   36.4050   43.1970   25.6080 C   0  0  0  0  0  0  0  0  0  0  0  0
   39.0810   30.9700   33.9640 O   0  0  0  0  0  0  0  0  0  0  0  0
   38.2860   39.7340   25.5480 C   0  0  0  0  0  0  0  0  0  0  0  0
   40.6190   38.8940   28.2670 C   0  0  0  0  0  0  0  0  0  0  0  0
   37.4620   29.3400   34.4530 C   0  0  0  0  0  0  0  0  0  0  0  0
   38.2310   35.7390   31.3250 C   0  0  0  0  0  0  0  0  0  0  0  0
   35.9170   40.6290   25.2480 C   0  0  0  0  0  0  0  0  0  0  0  0
   38.5680   41.7290   27.9360 O   0  0  0  0  0  0  0  0  0  0  0  0
   35.6330   43.1430   24.3320 C   0  0  0  0  0  0  0  0  0  0  0  0
   38.8300   29.6690   34.3380 C   0  0  0  0  0  0  0  0  0  0  0  0
   38.1120   34.7720   32.3060 N   0  0  0  0  0  0  0  0  0  0  0  0
   39.3530   36.1350   30.5840 N   0  0  0  0  0  0  0  0  0  0  0  0
   39.4450   37.4900   30.0600 C   0  0  0  0  0  0  0  0  0  0  0  0
   37.0430   40.4100   26.1810 C   0  0  0  0  0  0  0  0  0  0  0  0
   37.4640   32.7740   33.4470 N   0  0  0  0  0  0  0  0  0  0  0  0
   38.3800   33.3890   32.4020 C   0  0  0  0  0  0  0  0  0  0  0  0
   35.3930   42.2750   23.5770 C   0  0  0  0  0  0  0  0  0  0  0  0
   36.7230   30.4240   34.1060 C   0  0  0  0  0  0  0  0  0  0  0  0
   40.4490   39.0380   26.8150 C   0  0  0  0  0  0  0  0  0  0  0  0
   36.5360   41.7470   26.0780 C   0  0  0  0  0  0  0  0  0  0  0  0
   34.6600   42.3680   22.1580 C   0  0  0  0  0  0  0  0  0  0  0  0
   39.3240   40.7600   27.6480 C   0  0  0  0  0  0  0  0  0  0  0  0
   40.5280   40.4220   28.8890 S   0  0  0  0  0  0  0  0  0  0  0  0
  1  8  1  0
  1 24  2  0
  2 19  1  0
  5  9  1  0
  5 25  1  0
  5 28  1  0
  6 12  2  0
  8 16  1  0
 10 29  1  0
 10  2  1  0
 12 17  1  0
 13  3  1  0
 13 26  1  0
 13 20  1  0
 15  7  1  0
 16 11  2  0
 17 22  1  0
 18 12  1  0
 19  4  2  0
 19 18  1  0
 20  9  1  0
 21  1  1  0
 22 21  1  0
 23  3  1  0
 23 15  2  0
 24 11  1  0
 25 10  1  0
 26  7  1  0
 26 20  1  0
 27 23  1  0
 28 14  2  0
 28 29  1  0
M  END
$$$$

     RDKit          3D

  6  5  0  0  0  0  0  0  0  0999 V2000
   39.0010   37.6220   29.2190 C   0  0  0  0  0  0  0  0  0  0  0  0
   42.3400   39.3660   29.3370 C   0  0  0  0  0  0  0  0  0  0  0  0
   43.4460   39.0260   30.2660 N   0  0  0  0  0  0  0  0  0  0  0  0
   39.6150   39.8100   28.2840 N   0  0  0  0  0  0  0  0  0  0  0  0
   41.2200   38.6790   29.7060 C   0  0  0  0  0  0  0  0  0  0  0  0
   39.9390   38.7560   29.0380 C   0  0  0  0  0  0  0  0  0  0  0  0
  2  5  1  0
  2  3  1  0
  4  6  1  0
  6  1  1  0
  6  5  1  0
M  END
$$$$

     RDKit          3D

 22 23  0  0  0  0  0  0  0  0999 V2000
   36.9910   40.9460   26.5470 C   0  0  0  0  0  0  0  0  0  0  0  0
   40.3940   43.2010   25.9840 O   0  0  0  0  0  0  0  0  0  0  0  0
   45.1630   41.6880   25.4090 C   0  0  0  0  0  0  0  0  0  0  0  0
   39.3650   41.0610   27.0990 C   0  0  0  0  0  0  0  0  0  0  0  0
   36.3200   41.2010   25.1910 C   0  0  0  0  0  0  0  0  0  0  0  0
   39.5800   38.9530   28.4730 C   0  0  0  0  0  0  0  0  0  0  0  0
   40.1640   39.7520   27.4650 C   0  0  0  0  0  0  0  0  0  0  0  0
   43.8250   39.0770   28.4880 C   0  0  0  0  0  0  0  0  0  0  0  0
   41.4880   41.8520   27.5260 C   0  0  0  0  0  0  0  0  0  0  0  0
   41.5500   37.9800   29.2010 N   0  0  0  0  0  0  0  0  0  0  0  0
   44.8430   40.6070   26.4920 C   0  0  0  0  0  0  0  0  0  0  0  0
   40.2340   38.1310   29.2620 C   0  0  0  0  0  0  0  0  0  0  0  0
   38.2980   40.5000   26.3030 O   0  0  0  0  0  0  0  0  0  0  0  0
   41.5860   40.3310   27.6690 C   0  0  0  0  0  0  0  0  0  0  0  0
   42.9940   40.0680   27.9210 N   0  0  0  0  0  0  0  0  0  0  0  0
   42.8900   42.2930   27.1530 C   0  0  0  0  0  0  0  0  0  0  0  0
   43.8540   41.1780   27.5200 C   0  0  0  0  0  0  0  0  0  0  0  0
   44.4670   39.3340   25.7420 C   0  0  0  0  0  0  0  0  0  0  0  0
   39.4740   37.2940   30.2670 C   0  0  0  0  0  0  0  0  0  0  0  0
   38.1900   37.7700   30.7210 O   0  0  0  0  0  0  0  0  0  0  0  0
   40.3370   42.0610   26.7130 C   0  0  0  0  0  0  0  0  0  0  0  0
   43.2350   43.4970   28.0400 C   0  0  0  0  0  0  0  0  0  0  0  0
  2 21  1  0
  3 11  1  0
  4 13  1  0
  4  7  1  0
  5  1  1  0
  6 12  2  3
  7 14  1  0
  7  6  1  0
  9 14  1  0
 10 12  1  0
 11 17  1  0
 12 19  1  0
 13  1  1  0
 14 15  1  0
 15  8  1  0
 16 17  1  0
 16  9  1  0
 16 22  1  0
 17 15  1  0
 18 11  1  0
 19 20  1  0
 21  4  1  0
 21  9  1  0
M  END
$$$$

     RDKit          3D

  8  8  0  0  0  0  0  0  0  0999 V2000
   40.1610   39.7570   27.4070 C   0  0  0  0  0  0  0  0  0  0  0  0
   42.1230   39.1980   29.2060 N   0  0  0  0  0  0  0  0  0  0  0  0
   38.2340   39.9050   26.6750 N   0  0  0  0  0  0  0  0  0  0  0  0
   38.5440   41.2040   27.0260 N   0  0  0  0  0  0  0  0  0  0  0  0
   39.7890   41.1500   27.4760 C   0  0  0  0  0  0  0  0  0  0  0  0
   40.6340   39.1640   28.7680 C   0  0  0  0  0  0  0  0  0  0  0  0
   39.1970   39.0430   26.7450 C   0  0  0  0  0  0  0  0  0  0  0  0
   42.3220   40.4770   29.7840 C   0  0  0  0  0  0  0  0  0  0  0  0
  1  5  1  0
  1  6  1  0
  2  8  1  0
  3  7  1  0
  3  4  1  0
  4  5  1  0
  6  2  1  0
  7  1  1  0
M  END
$$$$
