
     RDKit          3D

  7  6  0  0  0  0  0  0  0  0999 V2000
   40.8570   37.7110   23.5840 O   0  0  0  0  0  0  0  0  0  0  0  0
   41.8560   35.4110   23.7360 C   0  0  0  0  0  0  0  0  0  0  0  0
   39.3130   34.8310   23.1000 O   0  0  0  0  0  0  0  0  0  0  0  0
   38.0730   36.1010   24.1540 C   0  0  0  0  0  0  0  0  0  0  0  0
   39.3690   35.7930   24.0620 C   0  0  0  0  0  0  0  0  0  0  0  0
   40.8330   36.4030   24.2750 C   0  0  0  0  0  0  0  0  0  0  0  0
   41.4180   36.7490   25.6490 C   0  0  0  0  0  0  0  0  0  0  0  0
  1  6  1  0
  2  6  1  0
  3  5  1  0
  5  4  2  0
  5  6  1  0
  6  7  1  0
M  END
$$$$

     RDKit          3D

 11 11  0  0  0  0  0  0  0  0999 V2000
   41.5820   37.1460   22.7090 C   0  0  0  0  0  0  0  0  0  0  0  0
   40.0980   37.0790   22.5470 C   0  0  0  0  0  0  0  0  0  0  0  0
   39.3740   37.9150   21.9040 O   0  0  0  0  0  0  0  0  0  0  0  0
   41.3580   34.8880   25.3570 O   0  0  0  0  0  0  0  0  0  0  0  0
   42.1390   36.4620   23.8160 C   0  0  0  0  0  0  0  0  0  0  0  0
   41.6130   35.2040   24.0680 C   0  0  0  0  0  0  0  0  0  0  0  0
   38.3350   35.6170   23.7630 O   0  0  0  0  0  0  0  0  0  0  0  0
   39.4620   35.7230   22.8210 C   0  0  0  0  0  0  0  0  0  0  0  0
   42.1560   36.6790   21.4570 O   0  0  0  0  0  0  0  0  0  0  0  0
   43.1600   36.9590   24.6290 O   0  0  0  0  0  0  0  0  0  0  0  0
   40.4950   34.6530   23.1540 C   0  0  0  0  0  0  0  0  0  0  0  0
  1  9  1  0
  1  5  1  0
  2  1  1  0
  2  8  1  0
  3  2  2  0
  5  6  1  0
  5 10  1  0
  6  4  1  0
  8 11  1  0
  8  7  1  0
 11  6  1  0
M  END
$$$$

     RDKit          3D

 10 10  0  0  0  0  0  0  0  0999 V2000
   40.1030   35.7450   22.5790 O   0  0  0  0  0  0  0  0  0  0  0  0
   41.9380   36.0040   24.0940 C   0  0  0  0  0  0  0  0  0  0  0  0
   41.0240   38.2220   24.0240 O   0  0  0  0  0  0  0  0  0  0  0  0
   37.6560   35.4590   23.5150 C   0  0  0  0  0  0  0  0  0  0  0  0
   39.7450   36.2650   24.6440 C   0  0  0  0  0  0  0  0  0  0  0  0
   42.7630   36.4010   25.1510 O   0  0  0  0  0  0  0  0  0  0  0  0
   38.9300   37.4030   23.5770 C   0  0  0  0  0  0  0  0  0  0  0  0
   40.6470   35.1070   24.5240 C   0  0  0  0  0  0  0  0  0  0  0  0
   38.9850   36.2030   23.5160 C   0  0  0  0  0  0  0  0  0  0  0  0
   41.0750   36.8220   23.3020 C   0  0  0  0  0  0  0  0  0  0  0  0
  1 10  1  0
  1  9  1  0
  2  8  1  0
  2  6  1  0
  4  9  1  0
  8  5  1  0
  9  7  1  0
  9  5  1  0
 10  3  2  0
 10  2  1  0
M  END
$$$$

     RDKit          3D

 20 21  0  0  0  0  0  0  0  0999 V2000
   35.8010   36.7050   22.2630 C   0  0  0  0  0  0  0  0  0  0  0  0
   40.8250   34.4650   22.5110 N   0  0  0  0  0  0  0  0  0  0  0  0
   38.1340   36.3080   23.0670 C   0  0  0  0  0  0  0  0  0  0  0  0
   44.0900   37.0680   27.2940 N   0  0  0  0  0  0  0  0  0  0  0  0
   39.5930   36.8490   22.8730 C   0  0  0  0  0  0  0  0  0  0  0  0
   44.9990   36.7930   25.0640 C   0  0  0  0  0  0  0  0  0  0  0  0
   37.2410   37.5930   19.7860 O   0  0  0  0  0  0  0  0  0  0  0  0
   43.1750   36.2270   26.5600 C   0  0  0  0  0  0  0  0  0  0  0  0
   38.5800   35.5650   25.5230 C   0  0  0  0  0  0  0  0  0  0  0  0
   38.8920   36.4290   20.5420 O   0  0  0  0  0  0  0  0  0  0  0  0
   37.1480   36.7040   22.1000 C   0  0  0  0  0  0  0  0  0  0  0  0
   41.4760   35.3710   23.3480 C   0  0  0  0  0  0  0  0  0  0  0  0
   37.7320   36.9520   20.7390 C   0  0  0  0  0  0  0  0  0  0  0  0
   43.5450   36.3510   25.0230 C   0  0  0  0  0  0  0  0  0  0  0  0
   37.3360   34.2420   23.8480 O   0  0  0  0  0  0  0  0  0  0  0  0
   42.8630   35.3850   23.9350 C   0  0  0  0  0  0  0  0  0  0  0  0
   40.5530   36.4370   24.0120 C   0  0  0  0  0  0  0  0  0  0  0  0
   40.0360   35.9910   25.4330 C   0  0  0  0  0  0  0  0  0  0  0  0
   37.9430   35.2520   24.1380 C   0  0  0  0  0  0  0  0  0  0  0  0
   45.3670   36.7480   26.5130 C   0  0  0  0  0  0  0  0  0  0  0  0
  2 12  1  0
  3 11  1  0
  3 19  1  0
  5  3  1  0
  5 17  1  0
  6 20  1  0
  7 13  2  0
  8  4  1  0
 10 13  1  0
 11  1  2  0
 12 16  2  3
 13 11  1  0
 14 16  1  0
 14  6  1  0
 14  8  1  0
 15 19  2  0
 17 12  1  0
 17 18  1  0
 18  9  1  0
 19  9  1  0
 20  4  1  0
M  END
$$$$

     RDKit          3D

 11 11  0  0  0  0  0  0  0  0999 V2000
   42.5730   34.6910   24.0580 O   0  0  0  0  0  0  0  0  0  0  0  0
   39.2870   36.4030   24.4770 O   0  0  0  0  0  0  0  0  0  0  0  0
   39.3720   36.0600   22.9450 P   0  0  0  0  0  0  0  0  0  0  0  0
   41.5860   36.6760   24.9820 C   0  0  0  0  0  0  0  0  0  0  0  0
   41.0470   35.7250   22.5780 C   0  0  0  0  0  0  0  0  0  0  0  0
   38.8360   37.1660   22.1900 O   0  0  0  0  0  0  0  0  0  0  0  0
   40.3070   35.9820   25.4340 C   0  0  0  0  0  0  0  0  0  0  0  0
   41.3720   38.1860   24.7450 C   0  0  0  0  0  0  0  0  0  0  0  0
   42.0810   35.9980   23.6920 C   0  0  0  0  0  0  0  0  0  0  0  0
   40.2930   38.7340   25.5120 O   0  0  0  0  0  0  0  0  0  0  0  0
   38.5890   34.8560   22.6930 O   0  0  0  0  0  0  0  0  0  0  0  0
  2  7  1  0
  3  6  2  0
  3  2  1  0
  4  8  1  0
  4  7  1  0
  5  3  1  0
  5  9  1  0
  8 10  1  0
  9  1  1  0
  9  4  1  0
 11  3  1  0
M  END
$$$$

     RDKit          3D

 20 20  0  0  0  0  0  0  0  0999 V2000
   36.0820   34.6430   22.6120 C   0  0  0  0  0  0  0  0  0  0  0  0
   41.5530   36.4250   26.7850 O   0  0  0  0  0  0  0  0  0  0  0  0
   37.1140   36.8230   22.8080 C   0  0  0  0  0  0  0  0  0  0  0  0
   41.1270   37.0540   23.1330 C   0  0  0  0  0  0  0  0  0  0  0  0
   37.0400   35.4480   23.2090 C   0  0  0  0  0  0  0  0  0  0  0  0
   38.5840   36.2010   24.7290 C   0  0  0  0  0  0  0  0  0  0  0  0
   34.9140   35.1830   22.0680 C   0  0  0  0  0  0  0  0  0  0  0  0
   36.2800   33.3630   22.6800 O   0  0  0  0  0  0  0  0  0  0  0  0
   39.9900   36.2810   22.5440 O   0  0  0  0  0  0  0  0  0  0  0  0
   42.7000   36.3550   24.0970 C   0  0  0  0  0  0  0  0  0  0  0  0
   35.8180   37.4190   22.4180 C   0  0  0  0  0  0  0  0  0  0  0  0
   34.7780   36.5950   21.9630 C   0  0  0  0  0  0  0  0  0  0  0  0
   43.3170   37.3460   23.3670 O   0  0  0  0  0  0  0  0  0  0  0  0
   40.8170   35.7110   26.0270 C   0  0  0  0  0  0  0  0  0  0  0  0
   40.6490   37.7530   24.4340 O   0  0  0  0  0  0  0  0  0  0  0  0
   41.7140   34.9670   22.4000 O   0  0  0  0  0  0  0  0  0  0  0  0
   38.1180   34.8510   24.0850 C   0  0  0  0  0  0  0  0  0  0  0  0
   41.5190   35.6400   23.6550 C   0  0  0  0  0  0  0  0  0  0  0  0
   40.5850   34.4590   26.0720 N   0  0  0  0  0  0  0  0  0  0  0  0
   39.8920   36.6450   25.4170 C   0  0  0  0  0  0  0  0  0  0  0  0
  1  8  1  0
  1  5  1  0
  3  5  1  0
  4  9  1  0
  4 18  1  0
  4 15  1  0
  5 17  1  0
  7  1  2  0
 11  3  1  0
 12  7  1  0
 12 11  2  0
 13 10  1  0
 14 19  1  0
 14  2  2  0
 15 20  1  0
 17  6  1  0
 18 16  1  0
 18 10  1  0
 20  6  1  0
 20 14  1  0
M  END
$$$$

     RDKit          3D

 10 10  0  0  0  0  0  0  0  0999 V2000
   41.4930   36.9710   22.7570 C   0  0  0  0  0  0  0  0  0  0  0  0
   42.1520   34.9920   21.7520 O   0  0  0  0  0  0  0  0  0  0  0  0
   39.9070   37.6310   24.8410 O   0  0  0  0  0  0  0  0  0  0  0  0
   41.5150   35.1200   23.0750 C   0  0  0  0  0  0  0  0  0  0  0  0
   39.2510   35.4180   24.2140 C   0  0  0  0  0  0  0  0  0  0  0  0
   42.4080   37.4590   21.2810 S   0  0  0  0  0  0  0  0  0  0  0  0
   40.0700   34.3780   23.4170 C   0  0  0  0  0  0  0  0  0  0  0  0
   43.4430   35.2840   21.4600 C   0  0  0  0  0  0  0  0  0  0  0  0
   41.0900   36.5620   23.3380 C   0  0  0  0  0  0  0  0  0  0  0  0
   40.5220   36.4960   24.6250 C   0  0  0  0  0  0  0  0  0  0  0  0
  4  2  1  0
  4  9  1  0
  4  7  1  0
  5 10  1  0
  6  1  1  0
  7  5  1  0
  8  2  1  0
  9  1  1  0
  9 10  1  0
 10  3  1  0
M  END
$$$$

     RDKit          3D

  6  5  0  0  0  0  0  0  0  0999 V2000
   40.4680   36.4410   24.5740 C   0  0  0  0  0  0  0  0  0  0  0  0
   40.5920   35.3910   25.7110 C   0  0  0  0  0  0  0  0  0  0  0  0
   41.2170   36.9390   23.8610 O   0  0  0  0  0  0  0  0  0  0  0  0
   38.5490   35.2440   23.2980 C   0  0  0  0  0  0  0  0  0  0  0  0
   38.9960   36.5840   24.1620 C   0  0  0  0  0  0  0  0  0  0  0  0
   41.9920   35.2170   26.1090 N   0  0  0  0  0  0  0  0  0  0  0  0
  1  2  1  0
  2  6  1  0
  3  1  2  0
  4  5  1  0
  5  1  1  0
M  END
$$$$

     RDKit          3D

  9  8  0  0  0  0  0  0  0  0999 V2000
   40.2330   35.1830   23.6780 N   0  0  0  0  0  0  0  0  0  0  0  0
   42.2930   35.1610   24.8600 C   0  0  0  0  0  0  0  0  0  0  0  0
   43.3890   37.1380   23.8910 O   0  0  0  0  0  0  0  0  0  0  0  0
   42.4990   35.6750   22.6510 O   0  0  0  0  0  0  0  0  0  0  0  0
   39.1470   34.6330   23.6010 O   0  0  0  0  0  0  0  0  0  0  0  0
   42.7740   36.1140   23.8220 C   0  0  0  0  0  0  0  0  0  0  0  0
   39.0250   36.8480   24.8500 O   0  0  0  0  0  0  0  0  0  0  0  0
   40.7500   35.4140   25.1620 C   0  0  0  0  0  0  0  0  0  0  0  0
   39.8500   36.2230   25.2290 C   0  0  0  0  0  0  0  0  0  0  0  0
  1  8  1  0
  4  6  2  0
  5  1  1  0
  6  3  1  0
  6  2  1  0
  7  9  1  0
  8  2  1  0
  8  9  1  0
M  END
$$$$

     RDKit          3D

 25 26  0  0  0  0  0  0  0  0999 V2000
   44.3560   34.9120   23.6360 C   0  0  0  0  0  0  0  0  0  0  0  0
   41.9710   35.9980   24.4610 C   0  0  0  0  0  0  0  0  0  0  0  0
   39.9620   35.9240   26.3450 C   0  0  0  0  0  0  0  0  0  0  0  0
   41.5010   36.1680   25.9510 C   0  0  0  0  0  0  0  0  0  0  0  0
   36.1060   34.1290   21.4650 C   0  0  0  0  0  0  0  0  0  0  0  0
   39.2620   37.2810   26.4720 C   0  0  0  0  0  0  0  0  0  0  0  0
   38.1640   36.0240   24.9120 C   0  0  0  0  0  0  0  0  0  0  0  0
   43.5550   35.8880   24.3430 C   0  0  0  0  0  0  0  0  0  0  0  0
   34.0520   32.7270   20.7170 C   0  0  0  0  0  0  0  0  0  0  0  0
   35.1150   33.0550   21.5760 C   0  0  0  0  0  0  0  0  0  0  0  0
   45.0280   38.1390   24.1330 C   0  0  0  0  0  0  0  0  0  0  0  0
   39.0240   35.5790   25.4660 N   0  0  0  0  0  0  0  0  0  0  0  0
   43.7620   37.3210   23.7260 C   0  0  0  0  0  0  0  0  0  0  0  0
   41.5640   37.1440   23.6730 C   0  0  0  0  0  0  0  0  0  0  0  0
   34.1000   30.5650   22.0360 O   0  0  0  0  0  0  0  0  0  0  0  0
   35.5740   36.4740   22.7660 C   0  0  0  0  0  0  0  0  0  0  0  0
   37.7170   35.5190   23.6540 C   0  0  0  0  0  0  0  0  0  0  0  0
   36.9330   34.3220   23.8540 N   0  0  0  0  0  0  0  0  0  0  0  0
   41.3430   34.6570   24.2940 N   0  0  0  0  0  0  0  0  0  0  0  0
   42.6160   37.9140   22.9500 O   0  0  0  0  0  0  0  0  0  0  0  0
   33.4240   31.4240   21.2820 N   0  0  0  0  0  0  0  0  0  0  0  0
   36.4850   35.5390   23.3850 C   0  0  0  0  0  0  0  0  0  0  0  0
   37.8340   37.3460   24.8280 O   0  0  0  0  0  0  0  0  0  0  0  0
   35.1600   35.5780   21.5370 S   0  0  0  0  0  0  0  0  0  0  0  0
   39.9220   34.9600   27.4420 C   0  0  0  0  0  0  0  0  0  0  0  0
  2 19  1  0
  2  4  1  0
  3  6  1  0
  3 25  1  0
  4  3  1  0
  5 24  1  0
  5 10  1  0
  7 12  1  0
  8  1  1  0
  8  2  1  0
  9 21  1  0
  9 10  1  0
 12  3  1  0
 13 11  1  0
 13  8  1  0
 14  2  1  0
 17 18  1  0
 17  7  1  0
 20 14  1  0
 20 13  1  0
 21 15  1  0
 22 16  1  0
 22 17  1  0
 22 18  1  0
 23  7  2  0
 24 16  1  0
M  END
$$$$

     RDKit          3D

 10 11  0  0  0  0  0  0  0  0999 V2000
   39.4550   34.9790   25.8950 C   0  0  0  0  0  0  0  0  0  0  0  0
   43.5320   35.5860   24.4540 N   0  0  0  0  0  0  0  0  0  0  0  0
   39.2980   35.9630   24.7560 C   0  0  0  0  0  0  0  0  0  0  0  0
   41.4460   36.4590   24.0490 C   0  0  0  0  0  0  0  0  0  0  0  0
   41.8140   35.5890   22.9320 C   0  0  0  0  0  0  0  0  0  0  0  0
   40.7780   35.5440   22.0790 O   0  0  0  0  0  0  0  0  0  0  0  0
   39.4340   35.4340   23.2260 C   0  0  0  0  0  0  0  0  0  0  0  0
   42.3360   35.7810   25.0800 C   0  0  0  0  0  0  0  0  0  0  0  0
   43.2380   35.6040   23.1580 C   0  0  0  0  0  0  0  0  0  0  0  0
   40.2670   37.0200   24.6360 N   0  0  0  0  0  0  0  0  0  0  0  0
  2  8  1  0
  3  1  1  0
  4 10  1  0
  4  8  1  0
  5  9  1  0
  5  4  1  0
  6  5  1  0
  6  7  1  0
  7  3  1  0
  9  2  1  0
 10  3  1  0
M  END
$$$$

     RDKit          3D

 10  9  0  0  0  0  0  0  0  0999 V2000
   40.9280   34.7570   26.0250 O   0  0  0  0  0  0  0  0  0  0  0  0
   41.4840   36.1400   25.7740 P   0  0  0  0  0  0  0  0  0  0  0  0
   41.4180   35.4400   22.3350 C   0  0  0  0  0  0  0  0  0  0  0  0
   40.5350   36.5550   24.2810 C   0  0  0  0  0  0  0  0  0  0  0  0
   39.1270   34.8480   23.1860 N   0  0  0  0  0  0  0  0  0  0  0  0
   40.9880   37.1310   26.7130 O   0  0  0  0  0  0  0  0  0  0  0  0
   40.9060   35.5490   21.2110 O   0  0  0  0  0  0  0  0  0  0  0  0
   40.4990   35.2470   23.5150 C   0  0  0  0  0  0  0  0  0  0  0  0
   42.8470   36.1330   25.2900 O   0  0  0  0  0  0  0  0  0  0  0  0
   42.6270   35.5020   22.5480 O   0  0  0  0  0  0  0  0  0  0  0  0
  2  1  1  0
  2  6  1  0
  3 10  1  0
  3  8  1  0
  4  2  1  0
  7  3  2  0
  8  5  1  0
  8  4  1  0
  9  2  2  0
M  END
$$$$

     RDKit          3D

 12 11  0  0  0  0  0  0  0  0999 V2000
   39.0610   37.6430   21.2360 C   0  0  0  0  0  0  0  0  0  0  0  0
   40.0450   36.1110   23.6860 C   0  0  0  0  0  0  0  0  0  0  0  0
   43.2530   35.7170   23.3050 N   0  0  0  0  0  0  0  0  0  0  0  0
   37.8320   36.2760   24.6220 O   0  0  0  0  0  0  0  0  0  0  0  0
   38.7640   35.6720   24.2030 C   0  0  0  0  0  0  0  0  0  0  0  0
   40.6210   35.6760   25.7410 O   0  0  0  0  0  0  0  0  0  0  0  0
   41.1860   35.6400   24.5560 C   0  0  0  0  0  0  0  0  0  0  0  0
   38.4950   34.5330   24.1010 O   0  0  0  0  0  0  0  0  0  0  0  0
   42.4280   36.4410   24.2420 C   0  0  0  0  0  0  0  0  0  0  0  0
   40.1640   35.3410   22.5090 O   0  0  0  0  0  0  0  0  0  0  0  0
   40.3030   37.5850   23.3500 C   0  0  0  0  0  0  0  0  0  0  0  0
   40.4130   37.8560   21.8280 C   0  0  0  0  0  0  0  0  0  0  0  0
  1 12  1  0
  2 10  1  0
  2  5  1  0
  2  7  1  0
  3  9  1  0
  5  4  1  0
  7  6  1  0
  8  5  2  0
  9  7  1  0
 11  2  1  0
 12 11  1  0
M  END
$$$$

     RDKit          3D

 10 10  0  0  0  0  0  0  0  0999 V2000
   38.6110   37.1350   24.0770 C   0  0  0  0  0  0  0  0  0  0  0  0
   41.3930   34.6500   25.4510 O   0  0  0  0  0  0  0  0  0  0  0  0
   39.6060   34.5960   23.3180 O   0  0  0  0  0  0  0  0  0  0  0  0
   42.1240   37.8460   24.4140 O   0  0  0  0  0  0  0  0  0  0  0  0
   42.4100   37.2300   23.2760 O   0  0  0  0  0  0  0  0  0  0  0  0
   41.0840   35.8610   24.8240 C   0  0  0  0  0  0  0  0  0  0  0  0
   37.3870   36.5120   23.6270 O   0  0  0  0  0  0  0  0  0  0  0  0
   40.5280   35.6540   23.5370 C   0  0  0  0  0  0  0  0  0  0  0  0
   42.3940   36.5430   24.4800 C   0  0  0  0  0  0  0  0  0  0  0  0
   39.7370   37.0230   23.2550 C   0  0  0  0  0  0  0  0  0  0  0  0
  4  9  1  0
  5  4  1  0
  5  9  1  0
  6  2  1  0
  7  1  1  0
  8  3  1  0
  8  6  1  0
  9  6  1  0
 10  8  1  0
 10  1  1  0
M  END
$$$$

     RDKit          3D

 21 21  0  0  0  0  0  0  0  0999 V2000
   42.3850   37.5310   25.5450 O   0  0  0  0  0  0  0  0  0  0  0  0
   38.6320   34.5560   25.0370 N   0  0  0  0  0  0  0  0  0  0  0  0
   42.8070   35.9860   22.9250 C   0  0  0  0  0  0  0  0  0  0  0  0
   37.3620   36.7260   19.2060 C   0  0  0  0  0  0  0  0  0  0  0  0
   41.4460   36.5560   23.3540 C   0  0  0  0  0  0  0  0  0  0  0  0
   43.7330   39.6130   27.3710 O   0  0  0  0  0  0  0  0  0  0  0  0
   37.0990   35.3600   22.5400 C   0  0  0  0  0  0  0  0  0  0  0  0
   39.1840   36.9880   24.8700 O   0  0  0  0  0  0  0  0  0  0  0  0
   42.5310   38.6390   26.7590 P   0  0  0  0  0  0  0  0  0  0  0  0
   35.2720   35.6140   20.8020 O   0  0  0  0  0  0  0  0  0  0  0  0
   38.8150   36.6370   21.4260 C   0  0  0  0  0  0  0  0  0  0  0  0
   37.0770   33.9830   22.7980 O   0  0  0  0  0  0  0  0  0  0  0  0
   37.4630   36.7850   20.7360 C   0  0  0  0  0  0  0  0  0  0  0  0
   39.2030   35.8130   24.1520 S   0  0  0  0  0  0  0  0  0  0  0  0
   40.6130   35.3990   23.5980 O   0  0  0  0  0  0  0  0  0  0  0  0
   42.4860   37.6280   27.8750 O   0  0  0  0  0  0  0  0  0  0  0  0
   40.6690   38.5940   24.4560 O   0  0  0  0  0  0  0  0  0  0  0  0
   41.6630   39.8440   26.2340 O   0  0  0  0  0  0  0  0  0  0  0  0
   41.4660   37.6520   24.4520 C   0  0  0  0  0  0  0  0  0  0  0  0
   38.4320   35.9750   22.7040 N   0  0  0  0  0  0  0  0  0  0  0  0
   36.6900   35.5710   21.1140 C   0  0  0  0  0  0  0  0  0  0  0  0
  1  9  1  0
  5  3  1  0
  5 15  1  0
  5 19  1  0
  7 20  1  0
  7 12  1  0
  9  6  1  0
  9 16  1  0
 11 20  1  0
 13  4  1  0
 13 21  1  0
 13 11  1  0
 14  8  1  0
 14  2  1  0
 15 14  1  0
 18  9  2  0
 19 17  2  0
 19  1  1  0
 20 14  1  0
 21 10  1  0
 21  7  1  0
M  END
$$$$

     RDKit          3D

 11 10  0  0  0  0  0  0  0  0999 V2000
   40.5270   36.7390   25.1320 C   0  0  0  0  0  0  0  0  0  0  0  0
   39.3150   35.1660   24.8790 O   0  0  0  0  0  0  0  0  0  0  0  0
   41.5510   38.0510   23.0160 C   0  0  0  0  0  0  0  0  0  0  0  0
   40.3510   35.9480   22.6920 O   0  0  0  0  0  0  0  0  0  0  0  0
   39.8550   37.7190   25.2570 O   0  0  0  0  0  0  0  0  0  0  0  0
   41.5800   36.5540   22.3710 C   0  0  0  0  0  0  0  0  0  0  0  0
   41.4900   38.5350   24.1880 C   0  0  0  0  0  0  0  0  0  0  0  0
   41.0420   34.4850   23.6960 C   0  0  0  0  0  0  0  0  0  0  0  0
   41.0930   38.8180   21.8870 O   0  0  0  0  0  0  0  0  0  0  0  0
   42.6570   36.9200   21.3670 O   0  0  0  0  0  0  0  0  0  0  0  0
   40.5160   35.5510   24.2840 C   0  0  0  0  0  0  0  0  0  0  0  0
  1  5  2  0
  3  7  2  0
  4 11  1  0
  6  4  1  0
  6  3  1  0
  9  3  1  0
 10  6  2  0
 11  8  1  0
 11  2  1  0
 11  1  1  0
M  END
$$$$

     RDKit          3D

 13 12  0  0  0  0  0  0  0  0999 V2000
   41.8610   36.7220   24.4880 C   0  0  0  0  0  0  0  0  0  0  0  0
   44.6450   34.4150   24.3190 O   0  0  0  0  0  0  0  0  0  0  0  0
   43.4210   33.9610   22.6720 O   0  0  0  0  0  0  0  0  0  0  0  0
   43.7860   35.1750   23.3080 S   0  0  0  0  0  0  0  0  0  0  0  0
   42.1240   38.9880   23.5220 C   0  0  0  0  0  0  0  0  0  0  0  0
   42.5090   35.2220   26.3600 N   0  0  0  0  0  0  0  0  0  0  0  0
   41.3920   38.1860   22.3130 O   0  0  0  0  0  0  0  0  0  0  0  0
   42.5240   35.3730   24.7180 C   0  0  0  0  0  0  0  0  0  0  0  0
   42.7590   38.0740   24.6320 C   0  0  0  0  0  0  0  0  0  0  0  0
   40.2040   37.3370   25.9880 O   0  0  0  0  0  0  0  0  0  0  0  0
   43.3390   35.9020   22.1030 O   0  0  0  0  0  0  0  0  0  0  0  0
   39.6850   35.6640   24.3900 O   0  0  0  0  0  0  0  0  0  0  0  0
   40.4810   36.5390   25.0220 C   0  0  0  0  0  0  0  0  0  0  0  0
  1  9  1  0
  1  8  1  0
  1 13  1  0
  3  4  1  0
  4  2  1  0
  4  8  1  0
  5  9  1  0
  7  5  1  0
  8  6  1  0
 11  4  1  0
 12 13  2  0
 13 10  1  0
M  END
$$$$

     RDKit          3D

 19 20  0  0  0  0  0  0  0  0999 V2000
   37.6790   37.6560   22.1020 O   0  0  0  0  0  0  0  0  0  0  0  0
   39.5120   36.3370   24.5150 C   0  0  0  0  0  0  0  0  0  0  0  0
   36.8250   35.1350   23.3460 C   0  0  0  0  0  0  0  0  0  0  0  0
   36.9230   33.8880   23.3410 O   0  0  0  0  0  0  0  0  0  0  0  0
   36.0330   37.2540   20.2950 C   0  0  0  0  0  0  0  0  0  0  0  0
   39.8540   35.1380   24.9760 C   0  0  0  0  0  0  0  0  0  0  0  0
   41.0210   34.9500   25.6060 N   0  0  0  0  0  0  0  0  0  0  0  0
   36.7590   35.7020   21.9850 C   0  0  0  0  0  0  0  0  0  0  0  0
   41.8040   36.0550   25.7650 C   0  0  0  0  0  0  0  0  0  0  0  0
   40.4260   37.4130   24.4340 C   0  0  0  0  0  0  0  0  0  0  0  0
   37.1770   36.6530   18.0730 C   0  0  0  0  0  0  0  0  0  0  0  0
   38.1340   36.6340   24.1350 C   0  0  0  0  0  0  0  0  0  0  0  0
   35.7710   36.8710   21.7920 C   0  0  0  0  0  0  0  0  0  0  0  0
   37.7750   36.3890   22.7990 N   0  0  0  0  0  0  0  0  0  0  0  0
   40.3890   38.5990   23.5560 C   0  0  0  0  0  0  0  0  0  0  0  0
   37.1880   36.2960   19.5390 C   0  0  0  0  0  0  0  0  0  0  0  0
   41.4720   37.2770   25.2390 C   0  0  0  0  0  0  0  0  0  0  0  0
   34.7210   36.9570   22.4920 O   0  0  0  0  0  0  0  0  0  0  0  0
   35.1330   38.6230   20.6190 O   0  0  0  0  0  0  0  0  0  0  0  0
  1 14  1  0
  2  6  1  0
  3  4  1  0
  5 19  1  0
  5 13  1  0
  6  7  2  0
  7  9  1  0
  8 13  1  0
  8 14  1  0
  8  3  1  0
 10  2  2  0
 10 17  1  0
 11 16  1  0
 12  2  1  0
 13 18  2  0
 14  3  1  0
 14 12  1  0
 15 10  1  0
 16  5  1  0
 17  9  2  0
M  END
$$$$

     RDKit          3D

  8  7  0  0  0  0  0  0  0  0999 V2000
   38.3170   36.7960   24.1850 O   0  0  0  0  0  0  0  0  0  0  0  0
   43.1360   36.9380   23.0390 C   0  0  0  0  0  0  0  0  0  0  0  0
   38.4460   35.7270   23.6880 C   0  0  0  0  0  0  0  0  0  0  0  0
   41.4680   35.0020   23.7170 O   0  0  0  0  0  0  0  0  0  0  0  0
   39.1060   36.4900   21.4310 O   0  0  0  0  0  0  0  0  0  0  0  0
   40.9240   35.8230   22.9600 C   0  0  0  0  0  0  0  0  0  0  0  0
   41.6950   37.0520   22.5270 C   0  0  0  0  0  0  0  0  0  0  0  0
   39.4620   35.5820   22.4960 C   0  0  0  0  0  0  0  0  0  0  0  0
  3  1  2  0
  6  4  2  0
  7  6  1  0
  7  2  1  0
  8  5  1  0
  8  6  1  0
  8  3  1  0
M  END
$$$$

     RDKit          3D

 10 10  0  0  0  0  0  0  0  0999 V2000
   41.9420   37.0440   24.1210 C   0  0  0  0  0  0  0  0  0  0  0  0
   40.0640   34.7630   24.7040 N   0  0  0  0  0  0  0  0  0  0  0  0
   39.0140   35.6690   25.2390 C   0  0  0  0  0  0  0  0  0  0  0  0
   43.3920   38.6300   22.9630 C   0  0  0  0  0  0  0  0  0  0  0  0
   40.9050   38.4480   25.5370 O   0  0  0  0  0  0  0  0  0  0  0  0
   43.2360   37.7640   24.1840 C   0  0  0  0  0  0  0  0  0  0  0  0
   41.7690   35.8790   22.8590 S   0  0  0  0  0  0  0  0  0  0  0  0
   40.8410   37.4980   24.8620 C   0  0  0  0  0  0  0  0  0  0  0  0
   39.4510   36.9360   24.7380 N   0  0  0  0  0  0  0  0  0  0  0  0
   40.7260   34.6820   23.5970 C   0  0  0  0  0  0  0  0  0  0  0  0
  1  6  1  0
  1  8  1  0
  2  3  1  0
  4  6  1  0
  7 10  1  0
  7  1  1  0
  8  5  2  0
  9  8  1  0
  9  3  1  0
 10  2  1  0
M  END
$$$$
