
     RDKit          3D

 13 13  0  0  0  0  0  0  0  0999 V2000
   42.5040   40.0670   31.9160 C   0  0  0  0  0  0  0  0  0  0  0  0
   42.1180   39.5050   28.4090 C   0  0  0  0  0  0  0  0  0  0  0  0
   41.6240   40.6430   32.6310 O   0  0  0  0  0  0  0  0  0  0  0  0
   41.3560   39.4570   27.2360 C   0  0  0  0  0  0  0  0  0  0  0  0
   42.2710   37.7470   31.0460 N   0  0  0  0  0  0  0  0  0  0  0  0
   39.4650   40.6890   30.8430 N   0  0  0  0  0  0  0  0  0  0  0  0
   42.0280   39.1200   30.8720 C   0  0  0  0  0  0  0  0  0  0  0  0
   44.0790   39.4830   28.5400 Br  0  0  0  0  0  0  0  0  0  0  0  0
   41.4160   39.6490   29.6250 C   0  0  0  0  0  0  0  0  0  0  0  0
   39.9800   39.7680   27.2960 C   0  0  0  0  0  0  0  0  0  0  0  0
   39.3490   40.1540   28.4990 C   0  0  0  0  0  0  0  0  0  0  0  0
   43.8060   40.1160   32.0040 O   0  0  0  0  0  0  0  0  0  0  0  0
   40.1080   40.2210   29.6990 C   0  0  0  0  0  0  0  0  0  0  0  0
  1 12  2  0
  1  3  1  0
  2  8  1  0
  2  9  1  0
  4 10  1  0
  4  2  2  0
  7  5  1  0
  7  1  1  0
  9 13  2  0
  9  7  1  0
 10 11  2  0
 11 13  1  0
 13  6  1  0
M  END
$$$$

     RDKit          3D

 16 16  0  0  0  0  0  0  0  0999 V2000
   42.0860   38.4370   27.7960 O   0  0  0  0  0  0  0  0  0  0  0  0
   40.3550   39.1260   30.3730 N   0  0  0  0  0  0  0  0  0  0  0  0
   39.2200   38.3900   27.1420 O   0  0  0  0  0  0  0  0  0  0  0  0
   40.2870   39.5730   29.0330 C   0  0  0  0  0  0  0  0  0  0  0  0
   43.8090   40.4430   32.9470 O   0  0  0  0  0  0  0  0  0  0  0  0
   39.4580   40.8610   28.7340 C   0  0  0  0  0  0  0  0  0  0  0  0
   42.5160   39.8390   29.8530 C   0  0  0  0  0  0  0  0  0  0  0  0
   41.3690   39.6320   30.9370 C   0  0  0  0  0  0  0  0  0  0  0  0
   41.8240   38.1910   32.6750 O   0  0  0  0  0  0  0  0  0  0  0  0
   41.8890   39.3460   32.1100 C   0  0  0  0  0  0  0  0  0  0  0  0
   41.6230   40.9320   33.6180 O   0  0  0  0  0  0  0  0  0  0  0  0
   41.7790   39.6840   28.5200 C   0  0  0  0  0  0  0  0  0  0  0  0
   38.6520   39.4150   26.7650 C   0  0  0  0  0  0  0  0  0  0  0  0
   42.5110   40.3310   32.9330 C   0  0  0  0  0  0  0  0  0  0  0  0
   38.1410   39.6220   25.5580 N   0  0  0  0  0  0  0  0  0  0  0  0
   38.5330   40.3890   27.6740 N   0  0  0  0  0  0  0  0  0  0  0  0
  2  8  1  0
  4  6  1  0
  4  2  1  0
  7  8  1  0
  8 10  1  0
 10  9  1  0
 10 14  1  0
 12  1  1  0
 12  4  1  0
 12  7  1  0
 13  3  2  0
 13 16  1  0
 14  5  2  0
 14 11  1  0
 15 13  1  0
 16  6  1  0
M  END
$$$$

     RDKit          3D

 16 16  0  0  0  0  0  0  0  0999 V2000
   40.8920   37.9790   32.4880 C   0  0  0  0  0  0  0  0  0  0  0  0
   42.2080   40.5480   27.1670 C   0  0  0  0  0  0  0  0  0  0  0  0
   41.8210   38.8480   33.4730 N   0  0  0  0  0  0  0  0  0  0  0  0
   39.6010   39.8150   30.0960 C   0  0  0  0  0  0  0  0  0  0  0  0
   40.5370   39.7760   29.0490 C   0  0  0  0  0  0  0  0  0  0  0  0
   40.1880   41.6430   27.9310 O   0  0  0  0  0  0  0  0  0  0  0  0
   41.0300   38.6590   31.1880 C   0  0  0  0  0  0  0  0  0  0  0  0
   41.6730   38.9080   29.8400 O   0  0  0  0  0  0  0  0  0  0  0  0
   43.2380   40.3370   27.9410 O   0  0  0  0  0  0  0  0  0  0  0  0
   39.6030   38.6090   30.7600 O   0  0  0  0  0  0  0  0  0  0  0  0
   40.7970   40.4560   27.6830 C   0  0  0  0  0  0  0  0  0  0  0  0
   42.2730   40.6780   26.0940 O   0  0  0  0  0  0  0  0  0  0  0  0
   42.3180   37.6270   31.3440 N   0  0  0  0  0  0  0  0  0  0  0  0
   40.9470   41.4490   30.7330 C   0  0  0  0  0  0  0  0  0  0  0  0
   39.8960   40.4860   32.5040 N   0  0  0  0  0  0  0  0  0  0  0  0
   41.0390   40.0000   31.6260 C   0  0  0  0  0  0  0  0  0  0  0  0
  1  3  1  0
  2 11  1  0
  2  9  1  0
  4 10  1  0
  5 11  1  0
  5  8  1  0
  5  4  1  0
  7 16  1  0
  7  1  1  0
  8  7  1  0
 10  7  1  0
 11  6  1  0
 12  2  2  0
 13  1  1  0
 16 14  1  0
 16 15  1  0
M  END
$$$$

     RDKit          3D

 14 14  0  0  0  0  0  0  0  0999 V2000
   40.2690   38.6560   28.7380 C   0  0  0  0  0  0  0  0  0  0  0  0
   41.0440   38.0660   31.7790 N   0  0  0  0  0  0  0  0  0  0  0  0
   41.7900   40.8120   29.2710 S   0  0  0  0  0  0  0  0  0  0  0  0
   40.3450   40.8160   28.1910 C   0  0  0  0  0  0  0  0  0  0  0  0
   43.4000   39.9980   33.2160 O   0  0  0  0  0  0  0  0  0  0  0  0
   40.7010   41.7560   27.0570 C   0  0  0  0  0  0  0  0  0  0  0  0
   40.5960   38.9940   29.9510 C   0  0  0  0  0  0  0  0  0  0  0  0
   40.8150   42.9960   27.2960 O   0  0  0  0  0  0  0  0  0  0  0  0
   41.4510   40.6440   33.6540 O   0  0  0  0  0  0  0  0  0  0  0  0
   40.9810   40.0830   30.5480 C   0  0  0  0  0  0  0  0  0  0  0  0
   42.1870   40.0100   32.9030 C   0  0  0  0  0  0  0  0  0  0  0  0
   39.8710   39.7480   27.9690 C   0  0  0  0  0  0  0  0  0  0  0  0
   40.7340   41.1640   25.9180 O   0  0  0  0  0  0  0  0  0  0  0  0
   41.6830   39.3670   31.7170 C   0  0  0  0  0  0  0  0  0  0  0  0
  1  7  1  0
  3 10  1  0
  4  6  1  0
  4  3  1  0
  6  8  1  0
  7 10  1  0
 10 14  1  0
 11  5  2  0
 11  9  1  0
 12  4  1  0
 12  1  1  0
 13  6  2  0
 14  2  1  0
 14 11  1  0
M  END
$$$$

     RDKit          3D

 15 14  0  0  0  0  0  0  0  0999 V2000
   42.6400   42.9520   27.3710 C   0  0  0  0  0  0  0  0  0  0  0  0
   41.2590   40.6670   33.6590 O   0  0  0  0  0  0  0  0  0  0  0  0
   40.3910   38.2910   31.2290 C   0  0  0  0  0  0  0  0  0  0  0  0
   41.6450   40.0070   32.6640 C   0  0  0  0  0  0  0  0  0  0  0  0
   40.3060   40.8150   28.1590 C   0  0  0  0  0  0  0  0  0  0  0  0
   41.4760   38.4960   32.3320 C   0  0  0  0  0  0  0  0  0  0  0  0
   42.3270   40.8550   32.1140 O   0  0  0  0  0  0  0  0  0  0  0  0
   40.1990   38.3310   28.3790 O   0  0  0  0  0  0  0  0  0  0  0  0
   39.9470   39.5890   28.9480 C   0  0  0  0  0  0  0  0  0  0  0  0
   40.6390   40.6090   30.9250 O   0  0  0  0  0  0  0  0  0  0  0  0
   41.7030   40.7460   27.7760 O   0  0  0  0  0  0  0  0  0  0  0  0
   40.4100   39.5500   30.4180 C   0  0  0  0  0  0  0  0  0  0  0  0
   42.6260   37.7900   31.6620 N   0  0  0  0  0  0  0  0  0  0  0  0
   42.0390   41.7430   26.8700 C   0  0  0  0  0  0  0  0  0  0  0  0
   42.6020   41.0410   25.6370 C   0  0  0  0  0  0  0  0  0  0  0  0
  3  6  1  0
  4  2  1  0
  5  9  1  0
  6 13  1  0
  6  4  1  0
  7  4  2  0
  9  8  1  0
  9 12  1  0
 11  5  1  0
 12 10  2  0
 12  3  1  0
 14  1  1  0
 14 11  1  0
 15 14  1  0
M  END
$$$$

     RDKit          3D

  5  4  0  0  0  0  0  0  0  0999 V2000
   41.2130   37.2280   32.4880 C   0  0  0  0  0  0  0  0  0  0  0  0
   41.3240   38.4870   31.7080 N   0  0  0  0  0  0  0  0  0  0  0  0
   42.6540   38.5040   31.0640 C   0  0  0  0  0  0  0  0  0  0  0  0
   41.2150   39.6240   32.6770 C   0  0  0  0  0  0  0  0  0  0  0  0
   40.2600   38.5430   30.6840 C   0  0  0  0  0  0  0  0  0  0  0  0
  2  1  1  0
  2  4  1  0
  3  2  1  0
  5  2  1  0
M  END
$$$$

     RDKit          3D

 21 22  0  0  0  0  0  0  0  0999 V2000
   39.8540   39.3850   26.3220 O   0  0  0  0  0  0  0  0  0  0  0  0
   43.4980   38.7910   33.8570 C   0  0  0  0  0  0  0  0  0  0  0  0
   40.8630   38.6500   30.3210 C   0  0  0  0  0  0  0  0  0  0  0  0
   40.5510   39.9110   29.4270 C   0  0  0  0  0  0  0  0  0  0  0  0
   39.5270   40.8790   28.2060 N   0  0  0  0  0  0  0  0  0  0  0  0
   42.3230   39.7000   33.6800 C   0  0  0  0  0  0  0  0  0  0  0  0
   42.3270   37.4960   31.9790 N   0  0  0  0  0  0  0  0  0  0  0  0
   37.1800   41.8460   29.0490 C   0  0  0  0  0  0  0  0  0  0  0  0
   42.8260   41.1330   33.6790 C   0  0  0  0  0  0  0  0  0  0  0  0
   39.8610   42.1610   27.5080 C   0  0  0  0  0  0  0  0  0  0  0  0
   41.8930   38.7740   31.4490 C   0  0  0  0  0  0  0  0  0  0  0  0
   37.2930   42.3110   27.4120 S   0  0  0  0  0  0  0  0  0  0  0  0
   40.3780   43.1920   28.4830 C   0  0  0  0  0  0  0  0  0  0  0  0
   43.5120   37.6810   32.8540 C   0  0  0  0  0  0  0  0  0  0  0  0
   42.7360   41.6640   32.2700 C   0  0  0  0  0  0  0  0  0  0  0  0
   41.3060   39.5260   32.6250 C   0  0  0  0  0  0  0  0  0  0  0  0
   39.7280   38.5360   31.1570 O   0  0  0  0  0  0  0  0  0  0  0  0
   39.4290   38.1180   28.0980 O   0  0  0  0  0  0  0  0  0  0  0  0
   38.6950   42.6780   26.6620 C   0  0  0  0  0  0  0  0  0  0  0  0
   39.9780   39.4110   27.9390 S   0  0  0  0  0  0  0  0  0  0  0  0
   41.9010   40.5860   29.0930 O   0  0  0  0  0  0  0  0  0  0  0  0
  1 20  2  0
  3 17  1  0
  4 21  1  0
  4  3  1  0
  5  4  1  0
  6  9  1  0
  6  2  1  0
  7 14  1  0
 10  5  1  0
 10 13  1  0
 11  3  1  0
 11  7  1  0
 11 16  1  0
 12  8  1  0
 14  2  1  0
 15  9  1  0
 16  6  1  0
 19 12  1  0
 19 10  1  0
 20 18  2  0
 20  5  1  0
 20  4  1  0
M  END
$$$$

     RDKit          3D

 13 13  0  0  0  0  0  0  0  0999 V2000
   40.3360   40.5600   29.6770 C   0  0  0  0  0  0  0  0  0  0  0  0
   40.3000   39.5430   32.9080 O   0  0  0  0  0  0  0  0  0  0  0  0
   40.8890   40.4820   27.1430 C   0  0  0  0  0  0  0  0  0  0  0  0
   39.7280   40.5360   28.2440 C   0  0  0  0  0  0  0  0  0  0  0  0
   41.4410   39.8690   32.3240 C   0  0  0  0  0  0  0  0  0  0  0  0
   42.2500   38.9750   28.7160 C   0  0  0  0  0  0  0  0  0  0  0  0
   42.3240   40.1930   27.7870 C   0  0  0  0  0  0  0  0  0  0  0  0
   42.2630   40.7930   32.7650 C   0  0  0  0  0  0  0  0  0  0  0  0
   40.3990   39.5010   26.2420 O   0  0  0  0  0  0  0  0  0  0  0  0
   42.8230   41.5950   33.3130 O   0  0  0  0  0  0  0  0  0  0  0  0
   41.1970   39.2770   29.8150 N   0  0  0  0  0  0  0  0  0  0  0  0
   41.7550   37.5180   31.6380 N   0  0  0  0  0  0  0  0  0  0  0  0
   41.7250   38.9120   31.1730 C   0  0  0  0  0  0  0  0  0  0  0  0
  1 11  1  0
  3  9  1  0
  3  7  1  0
  3  4  1  0
  4  1  1  0
  5  8  2  0
  5  2  1  0
  6 11  1  0
  7  6  1  0
  8 10  2  0
 11 13  1  0
 13 12  1  0
 13  5  1  0
M  END
$$$$

     RDKit          3D

  9  8  0  0  0  0  0  0  0  0999 V2000
   40.9270   39.9460   31.2640 C   0  0  0  0  0  0  0  0  0  0  0  0
   41.4180   39.9640   32.7610 C   0  0  0  0  0  0  0  0  0  0  0  0
   42.5200   38.2650   30.8940 O   0  0  0  0  0  0  0  0  0  0  0  0
   41.8910   41.1230   33.2930 C   0  0  0  0  0  0  0  0  0  0  0  0
   40.6460   39.9980   28.4590 O   0  0  0  0  0  0  0  0  0  0  0  0
   41.6170   38.8310   33.1530 O   0  0  0  0  0  0  0  0  0  0  0  0
   42.8120   40.9750   28.8750 C   0  0  0  0  0  0  0  0  0  0  0  0
   41.8640   39.2260   30.3530 C   0  0  0  0  0  0  0  0  0  0  0  0
   41.9340   39.7300   28.9130 C   0  0  0  0  0  0  0  0  0  0  0  0
  1  2  1  0
  2  6  2  0
  2  4  1  0
  5  9  1  0
  8  3  2  0
  8  1  1  0
  9  7  1  0
  9  8  1  0
M  END
$$$$

     RDKit          3D

 12 11  0  0  0  0  0  0  0  0999 V2000
   40.4290   39.1900   32.8180 O   0  0  0  0  0  0  0  0  0  0  0  0
   39.6630   41.6780   28.8320 C   0  0  0  0  0  0  0  0  0  0  0  0
   40.0420   39.9520   27.1080 C   0  0  0  0  0  0  0  0  0  0  0  0
   39.7850   40.2980   28.5330 C   0  0  0  0  0  0  0  0  0  0  0  0
   40.3030   35.8720   32.0160 C   0  0  0  0  0  0  0  0  0  0  0  0
   39.8800   39.1620   29.5600 C   0  0  0  0  0  0  0  0  0  0  0  0
   42.3860   38.0940   32.0640 N   0  0  0  0  0  0  0  0  0  0  0  0
   41.6370   40.3400   30.4070 O   0  0  0  0  0  0  0  0  0  0  0  0
   40.7860   39.2950   30.5330 C   0  0  0  0  0  0  0  0  0  0  0  0
   40.9620   38.3700   31.7420 C   0  0  0  0  0  0  0  0  0  0  0  0
   38.7370   40.1320   26.3220 C   0  0  0  0  0  0  0  0  0  0  0  0
   40.1320   37.0780   31.5010 C   0  0  0  0  0  0  0  0  0  0  0  0
  3  4  1  0
  4  2  1  0
  4  6  1  0
  6  9  2  3
  8  9  1  0
  9 10  1  0
 10  7  1  0
 10  1  1  0
 11  3  1  0
 12 10  1  0
 12  5  2  0
M  END
$$$$

     RDKit          3D

 16 16  0  0  0  0  0  0  0  0999 V2000
   39.5860   38.2290   27.5410 O   0  0  0  0  0  0  0  0  0  0  0  0
   40.4630   39.3190   27.7930 C   0  0  0  0  0  0  0  0  0  0  0  0
   40.0000   40.9420   26.3170 C   0  0  0  0  0  0  0  0  0  0  0  0
   41.0290   41.1270   25.3280 O   0  0  0  0  0  0  0  0  0  0  0  0
   40.4390   40.7290   27.6580 O   0  0  0  0  0  0  0  0  0  0  0  0
   42.2970   39.0010   29.1870 O   0  0  0  0  0  0  0  0  0  0  0  0
   42.8950   40.8100   30.3070 O   0  0  0  0  0  0  0  0  0  0  0  0
   41.9500   37.7600   32.2600 O   0  0  0  0  0  0  0  0  0  0  0  0
   40.3710   39.1800   31.3510 C   0  0  0  0  0  0  0  0  0  0  0  0
   42.0500   40.0960   32.9420 C   0  0  0  0  0  0  0  0  0  0  0  0
   42.7810   39.3960   30.6330 C   0  0  0  0  0  0  0  0  0  0  0  0
   40.9020   38.8820   29.1550 C   0  0  0  0  0  0  0  0  0  0  0  0
   41.8200   39.1010   31.8390 C   0  0  0  0  0  0  0  0  0  0  0  0
   42.0650   39.7460   34.1050 O   0  0  0  0  0  0  0  0  0  0  0  0
   42.3920   41.2930   32.8610 O   0  0  0  0  0  0  0  0  0  0  0  0
   40.1690   39.6460   30.1060 O   0  0  0  0  0  0  0  0  0  0  0  0
  1  2  2  0
  3  5  1  0
  4  3  1  0
  5  2  1  0
  6 11  1  0
  9 13  1  0
 10 14  1  0
 11  7  1  0
 11 13  1  0
 12  2  1  0
 12  6  1  0
 12 16  1  0
 13  8  1  0
 13 10  1  0
 15 10  2  0
 16  9  1  0
M  END
$$$$

     RDKit          3D

  5  4  0  0  0  0  0  0  0  0999 V2000
   41.6660   37.5950   32.2970 C   0  0  0  0  0  0  0  0  0  0  0  0
   41.4650   39.0100   31.6740 C   0  0  0  0  0  0  0  0  0  0  0  0
   41.4290   39.9930   32.9060 N   0  0  0  0  0  0  0  0  0  0  0  0
   40.2260   39.1050   31.0410 O   0  0  0  0  0  0  0  0  0  0  0  0
   42.6420   39.1580   30.5590 C   0  0  0  0  0  0  0  0  0  0  0  0
  2  1  1  0
  2  3  1  0
  4  2  1  0
  5  2  1  0
M  END
$$$$

     RDKit          3D

 16 16  0  0  0  0  0  0  0  0999 V2000
   40.5520   38.8850   30.4580 O   0  0  0  0  0  0  0  0  0  0  0  0
   41.3690   39.9630   32.4210 C   0  0  0  0  0  0  0  0  0  0  0  0
   43.7290   38.5030   32.2510 C   0  0  0  0  0  0  0  0  0  0  0  0
   39.8610   40.0270   27.3730 C   0  0  0  0  0  0  0  0  0  0  0  0
   39.1600   40.9350   26.4370 C   0  0  0  0  0  0  0  0  0  0  0  0
   41.9080   40.3600   26.3820 O   0  0  0  0  0  0  0  0  0  0  0  0
   39.5170   39.8540   28.6230 C   0  0  0  0  0  0  0  0  0  0  0  0
   41.0960   39.7720   27.1090 C   0  0  0  0  0  0  0  0  0  0  0  0
   41.6330   39.1590   31.3070 C   0  0  0  0  0  0  0  0  0  0  0  0
   43.4540   39.2820   33.3750 C   0  0  0  0  0  0  0  0  0  0  0  0
   38.7730   40.5870   29.5620 O   0  0  0  0  0  0  0  0  0  0  0  0
   42.2870   40.0180   33.4430 C   0  0  0  0  0  0  0  0  0  0  0  0
   40.5680   39.2620   29.1560 N   0  0  0  0  0  0  0  0  0  0  0  0
   42.8170   38.4530   31.2000 C   0  0  0  0  0  0  0  0  0  0  0  0
   37.9840   41.1370   27.0840 O   0  0  0  0  0  0  0  0  0  0  0  0
   44.3880   39.3390   34.3590 O   0  0  0  0  0  0  0  0  0  0  0  0
  1  9  1  0
  2 12  1  0
  3 10  1  0
  4  5  1  0
  4  7  1  0
  5 15  1  0
  6  8  2  0
  7 13  1  0
  7 11  2  0
  8  4  1  0
  9  2  2  0
 10 12  2  0
 10 16  1  0
 13  1  1  0
 14  9  1  0
 14  3  2  0
M  END
$$$$

     RDKit          3D

 23 24  0  0  0  0  0  0  0  0999 V2000
   37.9250   42.3620   27.5410 C   0  0  0  0  0  0  0  0  0  0  0  0
   40.7450   35.8290   32.3090 C   0  0  0  0  0  0  0  0  0  0  0  0
   41.0010   39.9630   31.4570 C   0  0  0  0  0  0  0  0  0  0  0  0
   41.1870   40.1990   28.1540 C   0  0  0  0  0  0  0  0  0  0  0  0
   36.5570   41.9840   28.0000 C   0  0  0  0  0  0  0  0  0  0  0  0
   35.7610   43.1430   27.7070 C   0  0  0  0  0  0  0  0  0  0  0  0
   41.4480   38.1390   32.9020 N   0  0  0  0  0  0  0  0  0  0  0  0
   38.1290   38.8240   26.0970 C   0  0  0  0  0  0  0  0  0  0  0  0
   40.3560   41.0570   31.2200 O   0  0  0  0  0  0  0  0  0  0  0  0
   36.4960   44.4610   27.5880 C   0  0  0  0  0  0  0  0  0  0  0  0
   41.9210   40.1750   33.8040 O   0  0  0  0  0  0  0  0  0  0  0  0
   37.8490   39.4320   24.8060 O   0  0  0  0  0  0  0  0  0  0  0  0
   41.5180   39.5200   32.7840 C   0  0  0  0  0  0  0  0  0  0  0  0
   40.8480   41.4650   26.2770 O   0  0  0  0  0  0  0  0  0  0  0  0
   41.2080   39.0060   30.3010 C   0  0  0  0  0  0  0  0  0  0  0  0
   34.3160   43.1170   28.0090 C   0  0  0  0  0  0  0  0  0  0  0  0
   40.9580   37.2450   31.9480 C   0  0  0  0  0  0  0  0  0  0  0  0
   40.2050   41.2730   27.5160 C   0  0  0  0  0  0  0  0  0  0  0  0
   40.7830   37.6320   30.6550 N   0  0  0  0  0  0  0  0  0  0  0  0
   39.2840   39.4130   26.8050 C   0  0  0  0  0  0  0  0  0  0  0  0
   40.3560   39.3190   29.0230 C   0  0  0  0  0  0  0  0  0  0  0  0
   38.8290   40.8120   27.5780 C   0  0  0  0  0  0  0  0  0  0  0  0
   39.7150   38.4350   27.8550 O   0  0  0  0  0  0  0  0  0  0  0  0
  1  5  1  0
  3  9  1  0
  3 13  1  0
  6  5  1  0
  6 16  1  0
 10  6  1  0
 12  8  1  0
 13  7  1  0
 13 11  2  0
 15 19  1  0
 15  3  1  0
 17  2  1  0
 17  7  2  0
 18 14  1  0
 18 22  1  0
 18  4  1  0
 19 17  1  0
 20  8  1  0
 20 22  1  0
 20 23  1  0
 21  4  1  0
 21 15  1  0
 22  1  1  0
 23 21  1  0
M  END
$$$$

     RDKit          3D

  4  3  0  0  0  0  0  0  0  0999 V2000
   42.2110   38.4470   30.2300 N   0  0  0  0  0  0  0  0  0  0  0  0
   40.6130   39.4890   31.9320 C   0  0  0  0  0  0  0  0  0  0  0  0
   41.9050   38.7080   31.5930 C   0  0  0  0  0  0  0  0  0  0  0  0
   42.8020   38.2960   32.5380 O   0  0  0  0  0  0  0  0  0  0  0  0
  1  3  1  0
  3  2  1  0
  3  4  2  0
M  END
$$$$

     RDKit          3D

 11 12  0  0  0  0  0  0  0  0999 V2000
   42.1610   40.0210   29.8100 C   0  0  0  0  0  0  0  0  0  0  0  0
   42.4490   41.5230   29.9430 O   0  0  0  0  0  0  0  0  0  0  0  0
   41.3650   38.5270   33.1000 N   0  0  0  0  0  0  0  0  0  0  0  0
   42.8530   38.7140   33.0500 C   0  0  0  0  0  0  0  0  0  0  0  0
   41.3110   39.6130   32.0830 C   0  0  0  0  0  0  0  0  0  0  0  0
   39.7570   39.1290   30.3930 O   0  0  0  0  0  0  0  0  0  0  0  0
   42.8220   39.8880   32.0780 C   0  0  0  0  0  0  0  0  0  0  0  0
   41.6570   39.8650   28.3750 C   0  0  0  0  0  0  0  0  0  0  0  0
   41.1730   39.0930   30.6390 C   0  0  0  0  0  0  0  0  0  0  0  0
   42.3720   40.4890   27.4270 O   0  0  0  0  0  0  0  0  0  0  0  0
   43.3030   39.4050   30.6170 C   0  0  0  0  0  0  0  0  0  0  0  0
  1  2  1  0
  1 11  1  0
  1  9  1  0
  4  3  1  0
  5  3  1  0
  7 11  1  0
  7  5  1  0
  7  4  1  0
  8  1  1  0
  9  6  1  0
  9  5  1  0
 10  8  1  0
M  END
$$$$

     RDKit          3D

 12 11  0  0  0  0  0  0  0  0999 V2000
   42.0770   40.4440   33.3110 C   0  0  0  0  0  0  0  0  0  0  0  0
   39.7440   39.9500   30.3870 N   0  0  0  0  0  0  0  0  0  0  0  0
   42.7860   39.3160   33.7790 O   0  0  0  0  0  0  0  0  0  0  0  0
   42.1620   38.9830   28.4530 O   0  0  0  0  0  0  0  0  0  0  0  0
   41.4990   39.8350   28.6100 C   0  0  0  0  0  0  0  0  0  0  0  0
   41.9200   41.4060   34.2630 O   0  0  0  0  0  0  0  0  0  0  0  0
   41.3070   38.4750   31.1520 C   0  0  0  0  0  0  0  0  0  0  0  0
   39.1880   39.7330   27.7360 C   0  0  0  0  0  0  0  0  0  0  0  0
   40.0960   39.7720   29.0200 C   0  0  0  0  0  0  0  0  0  0  0  0
   41.4690   40.6180   32.0430 C   0  0  0  0  0  0  0  0  0  0  0  0
   42.7790   38.3290   31.2150 N   0  0  0  0  0  0  0  0  0  0  0  0
   40.7710   39.5770   31.2720 C   0  0  0  0  0  0  0  0  0  0  0  0
  1  3  2  0
  1  6  1  0
  2 12  1  0
  4  5  2  0
  5  9  1  0
  7 11  1  0
  9  8  1  0
  9  2  1  0
 10  1  1  0
 12  7  1  0
 12 10  1  0
M  END
$$$$

     RDKit          3D

 19 19  0  0  0  0  0  0  0  0999 V2000
   38.1840   41.6890   26.2880 C   0  0  0  0  0  0  0  0  0  0  0  0
   39.5000   36.0420   31.5500 O   0  0  0  0  0  0  0  0  0  0  0  0
   38.4860   41.4690   27.6120 C   0  0  0  0  0  0  0  0  0  0  0  0
   40.2970   36.5770   32.5100 C   0  0  0  0  0  0  0  0  0  0  0  0
   39.5020   38.0160   28.1770 F   0  0  0  0  0  0  0  0  0  0  0  0
   40.4820   39.5930   30.1060 C   0  0  0  0  0  0  0  0  0  0  0  0
   39.9200   38.5070   30.8310 N   0  0  0  0  0  0  0  0  0  0  0  0
   39.5920   40.3700   29.4060 N   0  0  0  0  0  0  0  0  0  0  0  0
   39.2120   38.9390   26.0100 C   0  0  0  0  0  0  0  0  0  0  0  0
   39.3270   39.1570   27.4170 C   0  0  0  0  0  0  0  0  0  0  0  0
   38.7020   39.7040   24.9950 C   0  0  0  0  0  0  0  0  0  0  0  0
   42.5270   37.1260   32.6070 O   0  0  0  0  0  0  0  0  0  0  0  0
   40.9710   40.2700   32.7560 O   0  0  0  0  0  0  0  0  0  0  0  0
   38.3380   40.9980   25.0760 C   0  0  0  0  0  0  0  0  0  0  0  0
   41.3620   39.0080   32.5890 C   0  0  0  0  0  0  0  0  0  0  0  0
   40.5000   38.0990   32.0760 C   0  0  0  0  0  0  0  0  0  0  0  0
   41.6720   39.8580   30.1240 O   0  0  0  0  0  0  0  0  0  0  0  0
   39.2440   40.3980   28.1210 C   0  0  0  0  0  0  0  0  0  0  0  0
   41.6540   36.2370   32.0940 N   0  0  0  0  0  0  0  0  0  0  0  0
  1  3  1  0
  3 18  1  0
  4  2  1  0
  6 17  2  0
  6  7  1  0
  7 16  1  0
  8  6  1  0
  9 10  1  0
 10 18  2  0
 10  5  1  0
 11 14  1  0
 11  9  2  0
 14  1  2  0
 15 13  1  0
 16  4  1  0
 16 15  1  0
 18  8  1  0
 19  4  1  0
 19 12  1  0
M  END
$$$$

     RDKit          3D

  9  8  0  0  0  0  0  0  0  0999 V2000
   43.1800   39.5010   31.9110 C   0  0  0  0  0  0  0  0  0  0  0  0
   43.1620   40.8790   33.9240 O   0  0  0  0  0  0  0  0  0  0  0  0
   42.4440   38.4090   31.1740 C   0  0  0  0  0  0  0  0  0  0  0  0
   42.3900   37.1350   31.7990 O   0  0  0  0  0  0  0  0  0  0  0  0
   44.6970   39.2480   32.1250 C   0  0  0  0  0  0  0  0  0  0  0  0
   42.4860   40.3410   33.0050 C   0  0  0  0  0  0  0  0  0  0  0  0
   41.2310   40.5040   32.8130 O   0  0  0  0  0  0  0  0  0  0  0  0
   41.0000   38.7380   30.9440 C   0  0  0  0  0  0  0  0  0  0  0  0
   40.8600   39.8710   29.4390 Br  0  0  0  0  0  0  0  0  0  0  0  0
  1  5  1  0
  1  6  1  0
  3  4  1  0
  3  1  1  0
  6  2  1  0
  7  6  2  0
  8  3  1  0
  9  8  1  0
M  END
$$$$

     RDKit          3D

 14 14  0  0  0  0  0  0  0  0999 V2000
   43.4790   42.4950   31.6050 C   0  0  0  0  0  0  0  0  0  0  0  0
   40.6970   39.7170   28.1010 C   0  0  0  0  0  0  0  0  0  0  0  0
   42.8500   42.4860   30.3290 O   0  0  0  0  0  0  0  0  0  0  0  0
   42.6020   40.2730   29.6600 C   0  0  0  0  0  0  0  0  0  0  0  0
   44.0490   39.6060   30.6890 S   0  0  0  0  0  0  0  0  0  0  0  0
   39.3620   39.7890   28.4410 C   0  0  0  0  0  0  0  0  0  0  0  0
   40.7320   38.9060   31.7690 C   0  0  0  0  0  0  0  0  0  0  0  0
   41.4240   39.3350   29.4300 C   0  0  0  0  0  0  0  0  0  0  0  0
   42.2820   41.1710   33.7150 O   0  0  0  0  0  0  0  0  0  0  0  0
   40.3840   39.6520   30.5220 N   0  0  0  0  0  0  0  0  0  0  0  0
   41.3550   37.6260   31.4640 N   0  0  0  0  0  0  0  0  0  0  0  0
   41.8580   41.2370   30.4750 O   0  0  0  0  0  0  0  0  0  0  0  0
   44.3030   41.0640   31.6530 C   0  0  0  0  0  0  0  0  0  0  0  0
   42.9510   42.3840   33.1840 C   0  0  0  0  0  0  0  0  0  0  0  0
  1 13  1  0
  1 14  1  0
  2  6  1  0
  3 12  1  0
  3  1  1  0
  4  8  1  0
  4 12  1  0
  4  5  1  0
  5 13  1  0
  8  2  1  0
  8 10  1  0
 10  7  1  0
 11  7  1  0
 14  9  1  0
M  END
$$$$
