
     RDKit          3D

 18 21  0  0  0  0  0  0  0  0999 V2000
   39.5230   37.4890   28.0980 C   0  0  0  0  0  0  0  0  0  0  0  0
   35.2920   38.8290   23.7210 C   0  0  0  0  0  0  0  0  0  0  0  0
   38.5960   37.8690   26.7230 C   0  0  0  0  0  0  0  0  0  0  0  0
   37.4220   39.9720   26.4530 N   0  0  0  0  0  0  0  0  0  0  0  0
   32.0630   40.2650   22.4340 C   0  0  0  0  0  0  0  0  0  0  0  0
   34.1390   40.9820   23.8470 C   0  0  0  0  0  0  0  0  0  0  0  0
   34.1630   41.8520   22.9930 O   0  0  0  0  0  0  0  0  0  0  0  0
   35.4990   39.4250   25.0400 C   0  0  0  0  0  0  0  0  0  0  0  0
   33.8700   38.5970   23.1710 C   0  0  0  0  0  0  0  0  0  0  0  0
   38.3530   39.2520   27.3070 C   0  0  0  0  0  0  0  0  0  0  0  0
   37.8270   38.4500   24.5040 C   0  0  0  0  0  0  0  0  0  0  0  0
   39.3820   38.4350   29.1700 N   0  0  0  0  0  0  0  0  0  0  0  0
   38.9530   38.0430   25.3590 N   0  0  0  0  0  0  0  0  0  0  0  0
   39.2050   39.6800   28.4660 C   0  0  0  0  0  0  0  0  0  0  0  0
   36.8500   38.9220   25.5850 C   0  0  0  0  0  0  0  0  0  0  0  0
   35.5380   40.3370   23.9530 C   0  0  0  0  0  0  0  0  0  0  0  0
   33.1150   39.8960   23.4870 C   0  0  0  0  0  0  0  0  0  0  0  0
   31.9230   41.6200   22.3600 O   0  0  0  0  0  0  0  0  0  0  0  0
  1 12  1  0
  2  9  1  0
  2 16  1  0
  2  8  1  0
  3 10  1  0
  3  1  1  0
  4 10  1  0
  5 17  1  0
  6  7  1  0
  6 16  1  0
  8 15  1  0
  9 17  1  0
 10 14  1  0
 11 13  1  0
 13  3  1  0
 14 12  1  0
 15 11  1  0
 15  4  1  0
 16  8  1  0
 17  6  1  0
 18  5  1  0
M  END
$$$$

     RDKit          3D

 11 11  0  0  0  0  0  0  0  0999 V2000
   37.5110   39.7130   25.5540 C   0  0  0  0  0  0  0  0  0  0  0  0
   37.8250   37.4600   28.2590 C   0  0  0  0  0  0  0  0  0  0  0  0
   36.8840   38.3010   25.4950 C   0  0  0  0  0  0  0  0  0  0  0  0
   36.7210   37.6190   24.1200 C   0  0  0  0  0  0  0  0  0  0  0  0
   37.4130   40.3200   24.2080 N   0  0  0  0  0  0  0  0  0  0  0  0
   40.2990   39.7320   26.6160 C   0  0  0  0  0  0  0  0  0  0  0  0
   40.9190   39.6610   25.3250 N   0  0  0  0  0  0  0  0  0  0  0  0
   38.5570   38.6520   25.7800 C   0  0  0  0  0  0  0  0  0  0  0  0
   40.6220   40.8740   27.4150 N   0  0  0  0  0  0  0  0  0  0  0  0
   39.6200   38.4830   27.3030 C   0  0  0  0  0  0  0  0  0  0  0  0
   38.5760   38.3010   27.2460 N   0  0  0  0  0  0  0  0  0  0  0  0
  1  5  1  0
  1  8  1  0
  3  4  1  0
  3  1  1  0
  3  8  1  0
  6 10  1  0
  6  9  1  0
  7  6  2  0
  8 11  1  0
 11 10  1  0
 11  2  1  0
M  END
$$$$

     RDKit          3D

  8  7  0  0  0  0  0  0  0  0999 V2000
   36.4150   38.0030   25.1430 O   0  0  0  0  0  0  0  0  0  0  0  0
   36.4440   39.0470   26.1300 C   0  0  0  0  0  0  0  0  0  0  0  0
   38.7760   39.9920   26.1070 C   0  0  0  0  0  0  0  0  0  0  0  0
   40.1380   39.3400   25.7270 C   0  0  0  0  0  0  0  0  0  0  0  0
   40.2500   39.1940   24.2980 O   0  0  0  0  0  0  0  0  0  0  0  0
   37.7960   39.0540   26.8540 C   0  0  0  0  0  0  0  0  0  0  0  0
   38.3080   37.6960   26.9220 O   0  0  0  0  0  0  0  0  0  0  0  0
   38.9590   41.1800   26.9620 O   0  0  0  0  0  0  0  0  0  0  0  0
  1  2  1  0
  2  6  1  0
  3  6  1  0
  3  8  1  0
  4  3  1  0
  5  4  1  0
  6  7  1  0
M  END
$$$$

     RDKit          3D

 16 16  0  0  0  0  0  0  0  0999 V2000
   35.9460   41.3530   22.7700 C   0  0  0  0  0  0  0  0  0  0  0  0
   37.8420   36.8370   27.7880 C   0  0  0  0  0  0  0  0  0  0  0  0
   36.3360   42.6980   23.2470 O   0  0  0  0  0  0  0  0  0  0  0  0
   39.2100   40.8000   23.2990 C   0  0  0  0  0  0  0  0  0  0  0  0
   37.9850   38.8490   26.4130 C   0  0  0  0  0  0  0  0  0  0  0  0
   38.2170   38.3330   27.6290 C   0  0  0  0  0  0  0  0  0  0  0  0
   37.0730   40.3610   24.8410 C   0  0  0  0  0  0  0  0  0  0  0  0
   40.2810   41.4910   24.0430 O   0  0  0  0  0  0  0  0  0  0  0  0
   34.4550   41.1960   22.8890 C   0  0  0  0  0  0  0  0  0  0  0  0
   38.4920   39.9740   24.3730 C   0  0  0  0  0  0  0  0  0  0  0  0
   40.3600   39.5420   26.1190 O   0  0  0  0  0  0  0  0  0  0  0  0
   39.1850   39.0960   25.4260 C   0  0  0  0  0  0  0  0  0  0  0  0
   39.5070   38.6110   28.4630 C   0  0  0  0  0  0  0  0  0  0  0  0
   36.7110   38.9830   25.5560 C   0  0  0  0  0  0  0  0  0  0  0  0
   36.5910   37.8080   24.6960 O   0  0  0  0  0  0  0  0  0  0  0  0
   36.7010   40.3250   23.4730 C   0  0  0  0  0  0  0  0  0  0  0  0
  1  9  1  0
  1  3  1  0
  1 16  1  0
  4  8  1  0
  5  6  1  0
  6  2  1  0
  6 13  1  0
  7 16  1  0
  7 14  1  0
 10  4  1  0
 10  7  1  0
 10 12  1  0
 12 11  1  0
 12  5  1  0
 14 15  1  0
 14  5  1  0
M  END
$$$$

     RDKit          3D

  7  6  0  0  0  0  0  0  0  0999 V2000
   37.0250   39.2970   26.0820 C   0  0  0  0  0  0  0  0  0  0  0  0
   37.2350   40.3900   24.4680 Br  0  0  0  0  0  0  0  0  0  0  0  0
   39.7040   37.3840   27.7460 N   0  0  0  0  0  0  0  0  0  0  0  0
   38.6710   40.4970   27.4260 O   0  0  0  0  0  0  0  0  0  0  0  0
   38.4060   39.2530   26.7680 C   0  0  0  0  0  0  0  0  0  0  0  0
   36.6630   37.9780   25.5760 O   0  0  0  0  0  0  0  0  0  0  0  0
   38.4330   38.1600   27.8240 C   0  0  0  0  0  0  0  0  0  0  0  0
  1  2  1  0
  1  5  1  0
  3  7  1  0
  5  4  1  0
  5  7  1  0
  6  1  1  0
M  END
$$$$

     RDKit          3D

 18 20  0  0  0  0  0  0  0  0999 V2000
   35.3020   40.2520   24.7450 C   0  0  0  0  0  0  0  0  0  0  0  0
   39.8170   40.0330   29.4120 C   0  0  0  0  0  0  0  0  0  0  0  0
   40.8800   41.7950   28.9750 N   0  0  0  0  0  0  0  0  0  0  0  0
   37.0580   39.0370   26.0560 C   0  0  0  0  0  0  0  0  0  0  0  0
   39.8820   40.7630   30.4590 N   0  0  0  0  0  0  0  0  0  0  0  0
   38.5370   37.6630   27.4690 C   0  0  0  0  0  0  0  0  0  0  0  0
   36.5310   38.4560   23.6530 C   0  0  0  0  0  0  0  0  0  0  0  0
   38.5840   40.1160   27.6620 C   0  0  0  0  0  0  0  0  0  0  0  0
   37.2240   37.6840   26.7820 C   0  0  0  0  0  0  0  0  0  0  0  0
   37.9130   37.5700   29.0940 C   0  0  0  0  0  0  0  0  0  0  0  0
   39.9770   38.8260   28.9190 N   0  0  0  0  0  0  0  0  0  0  0  0
   39.7050   41.0520   28.3550 C   0  0  0  0  0  0  0  0  0  0  0  0
   39.2330   38.7940   27.8250 C   0  0  0  0  0  0  0  0  0  0  0  0
   37.6920   40.2610   26.5600 C   0  0  0  0  0  0  0  0  0  0  0  0
   36.7530   37.2320   23.6270 O   0  0  0  0  0  0  0  0  0  0  0  0
   36.2720   39.1080   24.8810 N   0  0  0  0  0  0  0  0  0  0  0  0
   40.5300   42.1410   30.2460 C   0  0  0  0  0  0  0  0  0  0  0  0
   36.4230   39.0150   22.4890 O   0  0  0  0  0  0  0  0  0  0  0  0
  1 16  1  0
  2  5  2  0
  3 17  1  0
  4 14  2  0
  4  9  1  0
  6 13  1  0
  6 10  1  0
  7 16  1  0
  8 14  1  0
  8 13  1  0
  8 12  1  0
  9  6  1  0
 11  2  1  0
 12  3  1  0
 12  2  1  0
 13 11  1  0
 15  7  1  0
 16  4  1  0
 17  5  1  0
 18  7  2  0
M  END
$$$$

     RDKit          3D

 14 13  0  0  0  0  0  0  0  0999 V2000
   38.5470   38.3770   26.9240 C   0  0  0  0  0  0  0  0  0  0  0  0
   38.9480   38.0270   23.2600 C   0  0  0  0  0  0  0  0  0  0  0  0
   39.8800   40.7000   23.1380 O   0  0  0  0  0  0  0  0  0  0  0  0
   37.7350   37.7870   25.9220 O   0  0  0  0  0  0  0  0  0  0  0  0
   37.1660   40.0560   23.4410 O   0  0  0  0  0  0  0  0  0  0  0  0
   39.5350   40.1050   24.1470 C   0  0  0  0  0  0  0  0  0  0  0  0
   38.3870   37.5050   28.1390 C   0  0  0  0  0  0  0  0  0  0  0  0
   37.2290   38.2540   24.7920 C   0  0  0  0  0  0  0  0  0  0  0  0
   40.3200   40.2280   25.1510 O   0  0  0  0  0  0  0  0  0  0  0  0
   38.6700   40.9670   26.6630 O   0  0  0  0  0  0  0  0  0  0  0  0
   39.2460   38.1110   21.3960 Br  0  0  0  0  0  0  0  0  0  0  0  0
   36.2300   37.7380   24.2930 O   0  0  0  0  0  0  0  0  0  0  0  0
   38.1920   39.1730   23.9770 C   0  0  0  0  0  0  0  0  0  0  0  0
   38.1050   39.8040   27.2280 C   0  0  0  0  0  0  0  0  0  0  0  0
  1 14  1  0
  1  7  1  0
  2 13  1  0
  3  6  2  0
  4  1  1  0
  6  9  1  0
  8  4  1  0
 10 14  1  0
 11  2  1  0
 12  8  2  0
 13  5  1  0
 13  6  1  0
 13  8  1  0
M  END
$$$$

     RDKit          3D

 12 11  0  0  0  0  0  0  0  0999 V2000
   38.4310   37.8570   25.5300 N   0  0  0  0  0  0  0  0  0  0  0  0
   37.5060   40.9150   25.7240 O   0  0  0  0  0  0  0  0  0  0  0  0
   40.3490   38.5660   23.4020 C   0  0  0  0  0  0  0  0  0  0  0  0
   41.1590   39.1460   24.5250 C   0  0  0  0  0  0  0  0  0  0  0  0
   38.0870   39.0090   24.5410 C   0  0  0  0  0  0  0  0  0  0  0  0
   35.9810   39.2300   25.2930 O   0  0  0  0  0  0  0  0  0  0  0  0
   38.8990   38.9850   23.2910 C   0  0  0  0  0  0  0  0  0  0  0  0
   40.5780   39.6310   25.5980 O   0  0  0  0  0  0  0  0  0  0  0  0
   37.1250   39.6650   25.5000 C   0  0  0  0  0  0  0  0  0  0  0  0
   38.0780   37.8570   26.9950 C   0  0  0  0  0  0  0  0  0  0  0  0
   38.3250   38.6000   27.8430 N   0  0  0  0  0  0  0  0  0  0  0  0
   38.0240   41.5290   24.4080 C   0  0  0  0  0  0  0  0  0  0  0  0
  1 10  1  0
  3  4  1  0
  4  8  1  0
  5  9  1  0
  5  1  2  3
  6  9  2  0
  7  3  1  0
  7  5  1  0
  9  2  1  0
 10 11  2  0
 12  2  1  0
M  END
$$$$

     RDKit          3D

 15 15  0  0  0  0  0  0  0  0999 V2000
   35.5020   38.4520   22.6020 C   0  0  0  0  0  0  0  0  0  0  0  0
   37.7750   39.0830   27.9540 C   0  0  0  0  0  0  0  0  0  0  0  0
   40.7720   39.5120   24.1840 S   0  0  0  0  0  0  0  0  0  0  0  0
   39.0750   39.2960   25.0020 C   0  0  0  0  0  0  0  0  0  0  0  0
   35.9180   40.5930   23.9660 C   0  0  0  0  0  0  0  0  0  0  0  0
   36.6480   38.2110   25.7690 S   0  0  0  0  0  0  0  0  0  0  0  0
   37.5310   38.6560   24.2620 C   0  0  0  0  0  0  0  0  0  0  0  0
   41.8140   39.3700   25.6340 C   0  0  0  0  0  0  0  0  0  0  0  0
   39.2480   38.3410   26.2990 C   0  0  0  0  0  0  0  0  0  0  0  0
   37.3570   40.0490   22.1260 C   0  0  0  0  0  0  0  0  0  0  0  0
   36.5450   39.3930   23.2760 C   0  0  0  0  0  0  0  0  0  0  0  0
   36.5730   41.6780   24.0010 O   0  0  0  0  0  0  0  0  0  0  0  0
   37.8310   38.1760   26.9980 C   0  0  0  0  0  0  0  0  0  0  0  0
   38.5890   40.0120   22.6860 N   0  0  0  0  0  0  0  0  0  0  0  0
   34.7700   40.5320   24.4220 O   0  0  0  0  0  0  0  0  0  0  0  0
  3  8  1  0
  4  3  1  0
  4  9  1  0
  5 12  2  0
  5 15  1  0
  6 13  1  0
  7 11  1  0
  7  4  1  0
  7  6  1  0
  9 13  1  0
 10 14  1  0
 10 11  1  0
 11  1  1  0
 11  5  1  0
 13  2  1  0
M  END
$$$$

     RDKit          3D

 14 15  0  0  0  0  0  0  0  0999 V2000
   39.4320   38.3890   24.7240 C   0  0  0  0  0  0  0  0  0  0  0  0
   36.8950   39.2110   25.9500 C   0  0  0  0  0  0  0  0  0  0  0  0
   40.8590   38.3150   24.1710 C   0  0  0  0  0  0  0  0  0  0  0  0
   36.9360   38.2100   25.0940 O   0  0  0  0  0  0  0  0  0  0  0  0
   37.2430   39.6120   24.5490 C   0  0  0  0  0  0  0  0  0  0  0  0
   38.6590   39.5290   24.0530 C   0  0  0  0  0  0  0  0  0  0  0  0
   39.5730   38.3120   20.8860 O   0  0  0  0  0  0  0  0  0  0  0  0
   36.4340   40.8660   24.1640 C   0  0  0  0  0  0  0  0  0  0  0  0
   36.7720   41.7500   23.5670 O   0  0  0  0  0  0  0  0  0  0  0  0
   38.7560   39.7880   22.5360 C   0  0  0  0  0  0  0  0  0  0  0  0
   39.4950   38.9470   26.0230 O   0  0  0  0  0  0  0  0  0  0  0  0
   38.2290   39.1490   26.7350 C   0  0  0  0  0  0  0  0  0  0  0  0
   40.0250   39.1780   21.9170 C   0  0  0  0  0  0  0  0  0  0  0  0
   38.2180   38.0620   27.8330 C   0  0  0  0  0  0  0  0  0  0  0  0
  1  3  1  0
  1 11  1  0
  2  4  1  0
  2 12  1  0
  5  8  1  0
  5  4  1  0
  5  2  1  0
  6 10  1  0
  6  5  1  0
  6  1  1  0
  7 13  1  0
  9  8  2  0
 11 12  1  0
 12 14  1  0
 13 10  1  0
M  END
$$$$

     RDKit          3D

 16 16  0  0  0  0  0  0  0  0999 V2000
   41.4050   38.9840   24.2470 O   0  0  0  0  0  0  0  0  0  0  0  0
   40.5950   39.3370   25.2410 C   0  0  0  0  0  0  0  0  0  0  0  0
   37.5640   38.6770   24.9400 C   0  0  0  0  0  0  0  0  0  0  0  0
   39.1470   38.5220   23.4150 C   0  0  0  0  0  0  0  0  0  0  0  0
   39.4470   39.0180   27.2520 N   0  0  0  0  0  0  0  0  0  0  0  0
   41.1670   40.2490   26.3720 C   0  0  0  0  0  0  0  0  0  0  0  0
   36.7800   38.3040   22.6230 C   0  0  0  0  0  0  0  0  0  0  0  0
   37.6280   38.1340   21.4800 O   0  0  0  0  0  0  0  0  0  0  0  0
   38.2520   39.6940   27.2450 C   0  0  0  0  0  0  0  0  0  0  0  0
   39.1050   38.8760   24.8710 C   0  0  0  0  0  0  0  0  0  0  0  0
   36.9390   37.6390   23.9970 C   0  0  0  0  0  0  0  0  0  0  0  0
   42.5620   40.4040   26.3320 O   0  0  0  0  0  0  0  0  0  0  0  0
   36.9660   38.8250   26.5940 S   0  0  0  0  0  0  0  0  0  0  0  0
   40.7340   39.6360   27.6770 C   0  0  0  0  0  0  0  0  0  0  0  0
   38.1230   40.6920   27.7370 O   0  0  0  0  0  0  0  0  0  0  0  0
   39.2180   37.3420   23.2710 O   0  0  0  0  0  0  0  0  0  0  0  0
  2  1  1  0
  2  6  1  0
  3 11  1  0
  3 13  1  0
  5 14  1  0
  6 12  1  0
  6 14  1  0
  7 11  1  0
  8  7  1  0
  9  5  1  0
  9 15  2  0
 10  4  1  0
 10  3  1  0
 10  2  1  0
 13  9  1  0
 16  4  1  0
M  END
$$$$

     RDKit          3D

 10 10  0  0  0  0  0  0  0  0999 V2000
   38.1920   37.6890   25.0020 O   0  0  0  0  0  0  0  0  0  0  0  0
   38.1920   37.4220   28.0470 C   0  0  0  0  0  0  0  0  0  0  0  0
   38.1870   39.9220   23.7070 C   0  0  0  0  0  0  0  0  0  0  0  0
   37.8220   39.1380   22.6600 O   0  0  0  0  0  0  0  0  0  0  0  0
   38.5740   41.2520   23.4090 O   0  0  0  0  0  0  0  0  0  0  0  0
   38.2520   39.6500   25.2170 C   0  0  0  0  0  0  0  0  0  0  0  0
   38.1460   38.5620   27.0660 C   0  0  0  0  0  0  0  0  0  0  0  0
   38.4990   38.5090   25.8260 C   0  0  0  0  0  0  0  0  0  0  0  0
   37.7100   40.6100   26.0870 O   0  0  0  0  0  0  0  0  0  0  0  0
   38.0250   39.8920   27.4830 N   0  0  0  0  0  0  0  0  0  0  0  0
  4  3  2  0
  5  3  1  0
  6  3  1  0
  6  8  1  0
  6  9  1  0
  7 10  1  0
  7  2  1  0
  8  1  1  0
  8  7  1  0
  9 10  1  0
M  END
$$$$

     RDKit          3D

 14 14  0  0  0  0  0  0  0  0999 V2000
   35.8350   38.7350   23.3970 C   0  0  0  0  0  0  0  0  0  0  0  0
   30.9400   38.5080   23.8110 C   0  0  0  0  0  0  0  0  0  0  0  0
   36.2330   39.5710   25.5980 C   0  0  0  0  0  0  0  0  0  0  0  0
   31.8350   39.7480   24.1700 C   0  0  0  0  0  0  0  0  0  0  0  0
   37.2450   38.4000   27.7960 N   0  0  0  0  0  0  0  0  0  0  0  0
   40.1300   39.0920   25.5930 C   0  0  0  0  0  0  0  0  0  0  0  0
   39.4000   38.2980   26.6510 C   0  0  0  0  0  0  0  0  0  0  0  0
   37.7710   38.0580   24.6280 C   0  0  0  0  0  0  0  0  0  0  0  0
   35.4910   39.5860   24.4100 C   0  0  0  0  0  0  0  0  0  0  0  0
   34.1490   40.3300   24.2870 C   0  0  0  0  0  0  0  0  0  0  0  0
   33.1990   39.4680   23.5920 O   0  0  0  0  0  0  0  0  0  0  0  0
   38.0470   38.5340   26.9040 C   0  0  0  0  0  0  0  0  0  0  0  0
   37.3700   38.7690   25.6710 C   0  0  0  0  0  0  0  0  0  0  0  0
   37.0240   38.0120   23.5550 C   0  0  0  0  0  0  0  0  0  0  0  0
  1 14  2  0
  1  9  1  0
  2  4  1  0
  3 13  1  0
  6  7  1  0
  7 12  1  0
  8 13  2  0
  9  3  2  0
 10  9  1  0
 11  4  1  0
 11 10  1  0
 12  5  2  0
 13 12  1  0
 14  8  1  0
M  END
$$$$

     RDKit          3D

 13 14  0  0  0  0  0  0  0  0999 V2000
   38.6850   39.6190   26.8580 C   0  0  0  0  0  0  0  0  0  0  0  0
   37.9530   37.9880   24.7110 C   0  0  0  0  0  0  0  0  0  0  0  0
   36.7720   38.2590   23.7950 C   0  0  0  0  0  0  0  0  0  0  0  0
   35.8920   39.3160   24.4630 C   0  0  0  0  0  0  0  0  0  0  0  0
   40.0820   40.2030   26.3660 C   0  0  0  0  0  0  0  0  0  0  0  0
   37.7840   38.6670   26.0470 N   0  0  0  0  0  0  0  0  0  0  0  0
   36.4460   40.6590   24.7650 C   0  0  0  0  0  0  0  0  0  0  0  0
   39.0300   38.7910   28.1250 C   0  0  0  0  0  0  0  0  0  0  0  0
   40.5890   39.3000   25.3230 O   0  0  0  0  0  0  0  0  0  0  0  0
   37.8600   37.8220   28.3500 C   0  0  0  0  0  0  0  0  0  0  0  0
   40.2580   38.0220   27.7950 N   0  0  0  0  0  0  0  0  0  0  0  0
   37.1050   37.7220   27.0140 C   0  0  0  0  0  0  0  0  0  0  0  0
   35.6310   40.4760   23.4660 C   0  0  0  0  0  0  0  0  0  0  0  0
  1  5  1  0
  1  8  1  0
  2  6  1  0
  3  4  1  0
  3  2  1  0
  4  7  1  0
  6  1  1  0
  6 12  1  0
  8 11  1  0
  8 10  1  0
  9  5  1  0
 12 10  1  0
 13  4  1  0
 13  7  1  0
M  END
$$$$

     RDKit          3D

 11 10  0  0  0  0  0  0  0  0999 V2000
   36.9800   38.7010   27.0810 C   0  0  0  0  0  0  0  0  0  0  0  0
   39.7820   38.5860   22.6970 C   0  0  0  0  0  0  0  0  0  0  0  0
   38.4140   38.6030   24.5610 C   0  0  0  0  0  0  0  0  0  0  0  0
   38.8080   39.4190   23.4120 C   0  0  0  0  0  0  0  0  0  0  0  0
   38.3740   38.1060   27.1160 N   0  0  0  0  0  0  0  0  0  0  0  0
   39.8440   39.9170   26.0130 O   0  0  0  0  0  0  0  0  0  0  0  0
   39.2880   38.6160   25.8430 C   0  0  0  0  0  0  0  0  0  0  0  0
   36.1780   37.5940   27.3680 O   0  0  0  0  0  0  0  0  0  0  0  0
   36.5360   37.6780   23.1070 C   0  0  0  0  0  0  0  0  0  0  0  0
   37.2040   37.7350   24.3740 O   0  0  0  0  0  0  0  0  0  0  0  0
   38.4640   37.2100   28.5540 C   0  0  0  0  0  0  0  0  0  0  0  0
  1  5  1  0
  1  8  1  0
  2  4  1  0
  3  4  1  0
  3  7  1  0
  5 11  1  0
  7  6  1  0
  7  5  1  0
  9 10  1  0
 10  3  1  0
M  END
$$$$

     RDKit          3D

  7  7  0  0  0  0  0  0  0  0999 V2000
   38.2130   40.9980   25.6590 C   0  0  0  0  0  0  0  0  0  0  0  0
   37.4300   40.0040   25.0200 O   0  0  0  0  0  0  0  0  0  0  0  0
   36.4560   38.0120   25.5410 N   0  0  0  0  0  0  0  0  0  0  0  0
   37.2550   38.9340   26.0410 C   0  0  0  0  0  0  0  0  0  0  0  0
   38.8920   37.8550   27.6160 N   0  0  0  0  0  0  0  0  0  0  0  0
   38.8350   40.3380   26.8690 N   0  0  0  0  0  0  0  0  0  0  0  0
   38.2620   39.0010   26.8850 C   0  0  0  0  0  0  0  0  0  0  0  0
  1  6  1  0
  2  1  1  0
  2  4  1  0
  3  4  2  0
  4  7  1  0
  6  7  1  0
  7  5  1  0
M  END
$$$$

     RDKit          3D

 18 18  0  0  0  0  0  0  0  0999 V2000
   41.7620   39.7470   27.1040 C   0  0  0  0  0  0  0  0  0  0  0  0
   38.5080   38.5640   26.6860 C   0  0  0  0  0  0  0  0  0  0  0  0
   34.0230   39.7900   23.2820 C   0  0  0  0  0  0  0  0  0  0  0  0
   33.6880   40.7310   22.2160 N   0  0  0  0  0  0  0  0  0  0  0  0
   37.1650   37.1070   25.3530 O   0  0  0  0  0  0  0  0  0  0  0  0
   40.6790   38.8140   27.2430 C   0  0  0  0  0  0  0  0  0  0  0  0
   35.7220   39.3250   24.7800 N   0  0  0  0  0  0  0  0  0  0  0  0
   35.2510   39.9260   23.6200 C   0  0  0  0  0  0  0  0  0  0  0  0
   38.1230   38.4260   27.9400 N   0  0  0  0  0  0  0  0  0  0  0  0
   40.3080   38.0850   28.5150 C   0  0  0  0  0  0  0  0  0  0  0  0
   37.4030   40.6650   25.7090 O   0  0  0  0  0  0  0  0  0  0  0  0
   35.8370   41.2410   23.4640 O   0  0  0  0  0  0  0  0  0  0  0  0
   36.8580   39.5970   25.3550 C   0  0  0  0  0  0  0  0  0  0  0  0
   42.8000   39.5070   27.1050 O   0  0  0  0  0  0  0  0  0  0  0  0
   33.3700   42.1240   22.6920 C   0  0  0  0  0  0  0  0  0  0  0  0
   37.5160   38.2570   25.6760 C   0  0  0  0  0  0  0  0  0  0  0  0
   38.8300   37.4850   28.6920 C   0  0  0  0  0  0  0  0  0  0  0  0
   39.7490   39.1360   26.3800 C   0  0  0  0  0  0  0  0  0  0  0  0
  1 14  2  0
  2 16  1  0
  2  9  1  0
  3  8  1  0
  4 15  1  0
  4  3  1  0
  5 16  2  0
  6  1  1  0
  6 10  1  0
  7 13  1  0
  8  7  1  0
  9 17  1  0
 10 17  1  0
 12  8  2  0
 13 16  1  0
 13 11  2  0
 18  2  1  0
 18  6  1  0
M  END
$$$$

     RDKit          3D

  7  6  0  0  0  0  0  0  0  0999 V2000
   39.5720   39.7450   27.2460 O   0  0  0  0  0  0  0  0  0  0  0  0
   36.2320   40.5800   24.2590 Br  0  0  0  0  0  0  0  0  0  0  0  0
   39.1850   37.2220   28.3650 O   0  0  0  0  0  0  0  0  0  0  0  0
   37.9110   40.3560   25.0310 C   0  0  0  0  0  0  0  0  0  0  0  0
   38.0240   38.9390   25.5070 C   0  0  0  0  0  0  0  0  0  0  0  0
   38.6920   38.9160   26.8760 C   0  0  0  0  0  0  0  0  0  0  0  0
   38.1220   37.8510   27.8120 C   0  0  0  0  0  0  0  0  0  0  0  0
  2  4  1  0
  4  5  1  0
  5  6  1  0
  6  1  2  0
  6  7  1  0
  7  3  1  0
M  END
$$$$

     RDKit          3D

 20 20  0  0  0  0  0  0  0  0999 V2000
   33.6500   39.3830   25.0850 O   0  0  0  0  0  0  0  0  0  0  0  0
   38.3180   39.2320   27.7720 C   0  0  0  0  0  0  0  0  0  0  0  0
   37.8570   39.2180   25.5720 C   0  0  0  0  0  0  0  0  0  0  0  0
   35.5730   38.9880   25.1920 O   0  0  0  0  0  0  0  0  0  0  0  0
   37.6370   40.0060   26.5620 C   0  0  0  0  0  0  0  0  0  0  0  0
   30.1600   38.7550   23.4630 O   0  0  0  0  0  0  0  0  0  0  0  0
   39.6210   38.7580   23.8090 C   0  0  0  0  0  0  0  0  0  0  0  0
   31.1580   39.2610   24.0360 C   0  0  0  0  0  0  0  0  0  0  0  0
   36.5510   41.1260   23.9540 O   0  0  0  0  0  0  0  0  0  0  0  0
   39.1940   39.2780   25.1910 C   0  0  0  0  0  0  0  0  0  0  0  0
   39.9130   38.5390   26.2850 C   0  0  0  0  0  0  0  0  0  0  0  0
   36.8280   38.4170   25.0750 C   0  0  0  0  0  0  0  0  0  0  0  0
   34.9910   39.3290   23.8520 C   0  0  0  0  0  0  0  0  0  0  0  0
   35.2660   40.7740   23.5280 C   0  0  0  0  0  0  0  0  0  0  0  0
   33.6910   39.1910   24.1450 C   0  0  0  0  0  0  0  0  0  0  0  0
   32.4020   39.6330   23.2300 C   0  0  0  0  0  0  0  0  0  0  0  0
   36.8020   37.2670   24.7310 O   0  0  0  0  0  0  0  0  0  0  0  0
   31.2080   39.0790   25.2730 C   0  0  0  0  0  0  0  0  0  0  0  0
   38.8350   38.0030   27.2830 N   0  0  0  0  0  0  0  0  0  0  0  0
   38.1140   36.9910   28.2880 C   0  0  0  0  0  0  0  0  0  0  0  0
  3 12  1  0
  3  5  1  0
  5  2  1  0
  6  8  2  0
  8 18  1  0
 10  7  1  0
 10  3  1  0
 10 11  1  0
 11 19  1  0
 12  4  1  0
 13 14  1  0
 13 15  1  0
 13  4  1  0
 14  9  1  0
 15  1  2  0
 16  8  1  0
 16 15  1  0
 17 12  2  0
 19  2  1  0
 19 20  1  0
M  END
$$$$

     RDKit          3D

 18 19  0  0  0  0  0  0  0  0999 V2000
   32.4590   40.0160   22.6730 C   0  0  0  0  0  0  0  0  0  0  0  0
   36.1340   37.9580   23.1010 C   0  0  0  0  0  0  0  0  0  0  0  0
   34.8660   38.7740   22.8250 C   0  0  0  0  0  0  0  0  0  0  0  0
   32.8920   39.1440   21.6800 C   0  0  0  0  0  0  0  0  0  0  0  0
   38.3920   38.8290   26.3620 C   0  0  0  0  0  0  0  0  0  0  0  0
   30.2180   39.6460   22.1440 O   0  0  0  0  0  0  0  0  0  0  0  0
   34.7390   39.9990   23.7180 C   0  0  0  0  0  0  0  0  0  0  0  0
   31.0700   40.2500   22.8480 C   0  0  0  0  0  0  0  0  0  0  0  0
   36.4070   37.0840   22.2690 O   0  0  0  0  0  0  0  0  0  0  0  0
   38.4840   37.7630   27.4130 C   0  0  0  0  0  0  0  0  0  0  0  0
   36.8120   38.1820   24.2100 N   0  0  0  0  0  0  0  0  0  0  0  0
   35.5030   40.1470   24.7740 C   0  0  0  0  0  0  0  0  0  0  0  0
   33.4740   40.6490   23.4160 C   0  0  0  0  0  0  0  0  0  0  0  0
   34.0840   38.4980   21.8210 N   0  0  0  0  0  0  0  0  0  0  0  0
   36.4430   39.1520   25.0180 C   0  0  0  0  0  0  0  0  0  0  0  0
   37.0750   39.2070   25.8590 N   0  0  0  0  0  0  0  0  0  0  0  0
   30.6530   41.1480   23.7350 O   0  0  0  0  0  0  0  0  0  0  0  0
   39.2810   38.4410   28.4250 N   0  0  0  0  0  0  0  0  0  0  0  0
  1  8  1  0
  1 13  1  0
  2 11  1  0
  3  2  1  0
  3  7  1  0
  4 14  1  0
  4  1  2  0
  5 10  1  0
  6  8  2  0
  7 12  1  0
  8 17  1  0
  9  2  2  0
 10 18  1  0
 11 15  2  0
 12 15  1  0
 13  7  2  0
 14  3  2  0
 15 16  1  0
 16  5  1  0
M  END
$$$$
