
     RDKit          3D

 10 10  0  0  0  0  0  0  0  0999 V2000
   33.8750   36.5130   18.8040 C   0  0  0  0  0  0  0  0  0  0  0  0
   37.9180   37.9630   21.3350 C   0  0  0  0  0  0  0  0  0  0  0  0
   35.8410   35.9350   20.6710 C   0  0  0  0  0  0  0  0  0  0  0  0
   36.8100   35.6360   21.6670 N   0  0  0  0  0  0  0  0  0  0  0  0
   36.4330   38.4400   21.0000 C   0  0  0  0  0  0  0  0  0  0  0  0
   34.3190   37.5580   19.6140 O   0  0  0  0  0  0  0  0  0  0  0  0
   33.2470   35.5460   19.0370 O   0  0  0  0  0  0  0  0  0  0  0  0
   34.9280   36.6790   17.3320 N   0  0  0  0  0  0  0  0  0  0  0  0
   35.4110   37.3430   20.5190 C   0  0  0  0  0  0  0  0  0  0  0  0
   38.0180   36.4280   21.6220 C   0  0  0  0  0  0  0  0  0  0  0  0
  1  7  2  0
  1  6  1  0
  2 10  1  0
  3  4  1  0
  5  2  1  0
  8  1  1  0
  9  6  1  0
  9  3  1  0
  9  5  1  0
 10  4  1  0
M  END
$$$$

     RDKit          3D

 20 21  0  0  0  0  0  0  0  0999 V2000
   31.1460   34.6670   22.0000 C   0  0  0  0  0  0  0  0  0  0  0  0
   33.5900   37.3730   22.6260 C   0  0  0  0  0  0  0  0  0  0  0  0
   29.7390   37.0190   21.7400 C   0  0  0  0  0  0  0  0  0  0  0  0
   37.7140   35.1190   24.5870 C   0  0  0  0  0  0  0  0  0  0  0  0
   34.3970   36.2120   23.0530 O   0  0  0  0  0  0  0  0  0  0  0  0
   35.6870   36.2760   23.7690 C   0  0  0  0  0  0  0  0  0  0  0  0
   28.1730   35.7890   20.6240 O   0  0  0  0  0  0  0  0  0  0  0  0
   30.8790   37.5140   22.1610 C   0  0  0  0  0  0  0  0  0  0  0  0
   36.2210   35.0010   24.2960 C   0  0  0  0  0  0  0  0  0  0  0  0
   37.9810   38.1570   21.7400 O   0  0  0  0  0  0  0  0  0  0  0  0
   40.2180   37.5050   23.0360 N   0  0  0  0  0  0  0  0  0  0  0  0
   32.1730   36.9350   22.4020 C   0  0  0  0  0  0  0  0  0  0  0  0
   31.9720   35.6870   22.3550 C   0  0  0  0  0  0  0  0  0  0  0  0
   36.5280   37.1630   23.1750 C   0  0  0  0  0  0  0  0  0  0  0  0
   38.9710   37.0650   23.6070 C   0  0  0  0  0  0  0  0  0  0  0  0
   38.6180   35.6210   23.4660 C   0  0  0  0  0  0  0  0  0  0  0  0
   29.2440   35.8100   21.3340 C   0  0  0  0  0  0  0  0  0  0  0  0
   34.1900   37.8590   21.2980 C   0  0  0  0  0  0  0  0  0  0  0  0
   37.8440   37.5580   22.8070 C   0  0  0  0  0  0  0  0  0  0  0  0
   29.8960   34.5930   21.4240 C   0  0  0  0  0  0  0  0  0  0  0  0
  1 13  2  0
  2 18  1  0
  2  5  1  0
  3  8  1  0
  6  5  1  0
  6  9  1  0
  7 17  2  0
  8 12  2  0
  9  4  1  0
 10 19  2  0
 12  2  1  0
 13 12  1  0
 14  6  1  0
 15 11  1  0
 16 15  1  0
 16  4  1  0
 17 20  1  0
 17  3  1  0
 19 14  1  0
 19 15  1  0
 20  1  1  0
M  END
$$$$

     RDKit          3D

 21 22  0  0  0  0  0  0  0  0999 V2000
   37.0820   36.7140   22.0400 C   0  0  0  0  0  0  0  0  0  0  0  0
   34.9360   37.9490   21.6590 C   0  0  0  0  0  0  0  0  0  0  0  0
   32.8400   36.9900   21.8630 C   0  0  0  0  0  0  0  0  0  0  0  0
   32.5770   34.7300   21.1030 C   0  0  0  0  0  0  0  0  0  0  0  0
   30.6300   36.1020   21.5030 C   0  0  0  0  0  0  0  0  0  0  0  0
   39.7110   40.2070   22.2830 C   0  0  0  0  0  0  0  0  0  0  0  0
   35.5580   36.7470   21.7960 C   0  0  0  0  0  0  0  0  0  0  0  0
   31.4430   37.1320   21.9310 C   0  0  0  0  0  0  0  0  0  0  0  0
   39.0820   38.1460   21.0860 C   0  0  0  0  0  0  0  0  0  0  0  0
   36.6410   38.8800   20.9620 O   0  0  0  0  0  0  0  0  0  0  0  0
   31.1890   34.9250   21.0140 C   0  0  0  0  0  0  0  0  0  0  0  0
   39.9580   39.3970   21.0860 C   0  0  0  0  0  0  0  0  0  0  0  0
   38.8720   37.6140   19.7550 N   0  0  0  0  0  0  0  0  0  0  0  0
   37.6780   38.1370   21.8690 C   0  0  0  0  0  0  0  0  0  0  0  0
   30.2150   33.8140   20.6770 C   0  0  0  0  0  0  0  0  0  0  0  0
   29.3710   32.6660   21.7500 C   0  0  0  0  0  0  0  0  0  0  0  0
   34.7770   35.6300   21.6250 N   0  0  0  0  0  0  0  0  0  0  0  0
   33.4200   35.7880   21.4780 C   0  0  0  0  0  0  0  0  0  0  0  0
   41.4230   38.9850   20.9700 C   0  0  0  0  0  0  0  0  0  0  0  0
   33.5750   38.0790   22.0430 N   0  0  0  0  0  0  0  0  0  0  0  0
   30.0310   33.0310   22.2680 O   0  0  0  0  0  0  0  0  0  0  0  0
  2  7  1  0
  2 20  1  0
  3  8  1  0
  3 20  1  0
  4 18  1  0
  5  8  2  0
  7  1  1  0
  9 13  1  0
  9 12  1  0
  9 14  1  0
 11  4  2  0
 11  5  1  0
 12  6  1  0
 14 10  1  0
 14  1  1  0
 15 11  1  0
 15 21  1  0
 16 21  1  0
 17  7  2  0
 18 17  1  0
 18  3  2  0
 19 12  1  0
M  END
$$$$

     RDKit          3D

  9  9  0  0  0  0  0  0  0  0999 V2000
   39.1390   39.8260   21.9610 P   0  0  0  0  0  0  0  0  0  0  0  0
   35.8470   36.3430   20.8570 O   0  0  0  0  0  0  0  0  0  0  0  0
   40.3870   39.2690   21.3190 O   0  0  0  0  0  0  0  0  0  0  0  0
   38.8530   36.8310   21.9670 N   0  0  0  0  0  0  0  0  0  0  0  0
   37.8010   38.8360   21.1820 C   0  0  0  0  0  0  0  0  0  0  0  0
   38.7400   40.4150   23.0600 O   0  0  0  0  0  0  0  0  0  0  0  0
   37.1490   36.2850   20.4210 C   0  0  0  0  0  0  0  0  0  0  0  0
   37.9140   37.5020   20.9620 C   0  0  0  0  0  0  0  0  0  0  0  0
   38.4570   40.0420   20.6450 O   0  0  0  0  0  0  0  0  0  0  0  0
  1  3  2  0
  1  6  1  0
  5  8  1  0
  5  1  1  0
  7  2  1  0
  7  8  1  0
  8  4  1  0
  9  5  1  0
  9  1  1  0
M  END
$$$$

     RDKit          3D

  9  8  0  0  0  0  0  0  0  0999 V2000
   36.9340   39.3880   22.1020 O   0  0  0  0  0  0  0  0  0  0  0  0
   37.9230   39.0950   19.7980 O   0  0  0  0  0  0  0  0  0  0  0  0
   36.8690   36.0970   21.8270 C   0  0  0  0  0  0  0  0  0  0  0  0
   35.6550   38.0800   20.4210 O   0  0  0  0  0  0  0  0  0  0  0  0
   36.9420   34.8640   21.5960 O   0  0  0  0  0  0  0  0  0  0  0  0
   37.8740   36.8750   21.0220 C   0  0  0  0  0  0  0  0  0  0  0  0
   37.0990   38.4960   20.9230 P   0  0  0  0  0  0  0  0  0  0  0  0
   35.2250   35.8220   19.6860 O   0  0  0  0  0  0  0  0  0  0  0  0
   34.8670   36.8730   20.5660 C   0  0  0  0  0  0  0  0  0  0  0  0
  4  9  1  0
  4  7  1  0
  5  3  1  0
  6  3  1  0
  7  2  2  0
  7  6  1  0
  7  1  1  0
  8  9  1  0
M  END
$$$$

     RDKit          3D

 21 21  0  0  0  0  0  0  0  0999 V2000
   38.7510   35.2560   22.8810 O   0  0  0  0  0  0  0  0  0  0  0  0
   40.5560   37.1290   20.6910 O   0  0  0  0  0  0  0  0  0  0  0  0
   37.7900   36.6900   18.7810 C   0  0  0  0  0  0  0  0  0  0  0  0
   31.0480   37.5520   22.8210 C   0  0  0  0  0  0  0  0  0  0  0  0
   38.8620   36.0460   21.6880 C   0  0  0  0  0  0  0  0  0  0  0  0
   30.4260   35.0330   21.7090 O   0  0  0  0  0  0  0  0  0  0  0  0
   40.8630   34.4610   20.2620 C   0  0  0  0  0  0  0  0  0  0  0  0
   32.3540   34.8830   20.5210 C   0  0  0  0  0  0  0  0  0  0  0  0
   31.7830   36.7310   22.1080 N   0  0  0  0  0  0  0  0  0  0  0  0
   31.4730   35.5810   21.3960 C   0  0  0  0  0  0  0  0  0  0  0  0
   38.7460   38.7740   21.7110 C   0  0  0  0  0  0  0  0  0  0  0  0
   40.2180   35.8160   20.8660 C   0  0  0  0  0  0  0  0  0  0  0  0
   35.6570   36.3190   21.9450 C   0  0  0  0  0  0  0  0  0  0  0  0
   37.0100   35.5760   18.3260 N   0  0  0  0  0  0  0  0  0  0  0  0
   33.0860   37.0950   22.2070 C   0  0  0  0  0  0  0  0  0  0  0  0
   33.6510   35.6080   20.2960 C   0  0  0  0  0  0  0  0  0  0  0  0
   37.2960   36.9740   20.3650 C   0  0  0  0  0  0  0  0  0  0  0  0
   36.5400   35.8290   20.7460 O   0  0  0  0  0  0  0  0  0  0  0  0
   34.0670   36.3620   21.5340 C   0  0  0  0  0  0  0  0  0  0  0  0
   38.0450   37.3730   21.7130 C   0  0  0  0  0  0  0  0  0  0  0  0
   35.9610   37.3830   22.6960 O   0  0  0  0  0  0  0  0  0  0  0  0
  2 12  1  0
  5 20  1  0
  5  1  1  0
  8 10  1  0
  9 15  1  0
  9  4  1  0
 10  6  2  0
 10  9  1  0
 12  7  1  0
 12  5  1  0
 13 21  1  0
 14  3  1  0
 16  8  1  0
 16 19  1  0
 17  3  1  0
 17 18  1  0
 17 20  1  0
 18 13  1  0
 19 13  1  0
 19 15  1  0
 20 11  1  0
M  END
$$$$

     RDKit          3D

 14 15  0  0  0  0  0  0  0  0999 V2000
   36.1810   36.0870   19.6640 C   0  0  0  0  0  0  0  0  0  0  0  0
   34.4760   38.3660   22.1060 C   0  0  0  0  0  0  0  0  0  0  0  0
   35.6650   36.4530   21.0030 C   0  0  0  0  0  0  0  0  0  0  0  0
   32.5720   35.7050   22.5490 O   0  0  0  0  0  0  0  0  0  0  0  0
   36.6090   40.1690   22.0220 O   0  0  0  0  0  0  0  0  0  0  0  0
   34.6020   35.7010   21.6050 N   0  0  0  0  0  0  0  0  0  0  0  0
   37.0390   38.7650   21.6190 P   0  0  0  0  0  0  0  0  0  0  0  0
   37.0070   35.8040   20.8210 C   0  0  0  0  0  0  0  0  0  0  0  0
   33.3820   37.6330   22.4430 N   0  0  0  0  0  0  0  0  0  0  0  0
   34.4020   39.5730   22.2370 O   0  0  0  0  0  0  0  0  0  0  0  0
   33.5440   36.2890   22.2490 C   0  0  0  0  0  0  0  0  0  0  0  0
   37.7960   38.7680   20.2900 O   0  0  0  0  0  0  0  0  0  0  0  0
   37.7520   38.1090   22.7370 O   0  0  0  0  0  0  0  0  0  0  0  0
   35.5590   37.8360   21.5300 C   0  0  0  0  0  0  0  0  0  0  0  0
  1  8  1  0
  1  3  1  0
  2 10  2  0
  2  9  1  0
  3 14  1  0
  3  6  1  0
  6 11  1  0
  7  5  1  0
  7 13  1  0
  8  3  1  0
 11  9  1  0
 11  4  2  0
 12  7  2  0
 14  7  1  0
 14  2  1  0
M  END
$$$$

     RDKit          3D

 24 25  0  0  0  0  0  0  0  0999 V2000
   27.9480   37.2450   18.7460 C   0  0  0  0  0  0  0  0  0  0  0  0
   37.0720   36.3990   21.2720 C   0  0  0  0  0  0  0  0  0  0  0  0
   34.6290   36.2780   20.7600 C   0  0  0  0  0  0  0  0  0  0  0  0
   38.8430   35.3380   22.8430 C   0  0  0  0  0  0  0  0  0  0  0  0
   41.1070   35.1010   20.3520 O   0  0  0  0  0  0  0  0  0  0  0  0
   31.9120   34.8490   21.3810 O   0  0  0  0  0  0  0  0  0  0  0  0
   28.4490   37.7070   20.0050 C   0  0  0  0  0  0  0  0  0  0  0  0
   37.7060   36.0900   23.5530 C   0  0  0  0  0  0  0  0  0  0  0  0
   36.4580   35.9710   22.6500 C   0  0  0  0  0  0  0  0  0  0  0  0
   33.9750   36.4690   22.1550 C   0  0  0  0  0  0  0  0  0  0  0  0
   29.8680   37.5890   22.2050 C   0  0  0  0  0  0  0  0  0  0  0  0
   35.1730   36.7550   23.0060 C   0  0  0  0  0  0  0  0  0  0  0  0
   35.9000   37.0750   20.5520 C   0  0  0  0  0  0  0  0  0  0  0  0
   41.5910   37.0590   21.3210 O   0  0  0  0  0  0  0  0  0  0  0  0
   38.4890   36.4160   20.6120 C   0  0  0  0  0  0  0  0  0  0  0  0
   31.3300   36.9530   22.4830 C   0  0  0  0  0  0  0  0  0  0  0  0
   27.6780   38.7380   20.3460 C   0  0  0  0  0  0  0  0  0  0  0  0
   29.4060   36.9070   20.9320 C   0  0  0  0  0  0  0  0  0  0  0  0
   31.2410   35.3870   22.2940 C   0  0  0  0  0  0  0  0  0  0  0  0
   30.4580   34.6520   22.9190 O   0  0  0  0  0  0  0  0  0  0  0  0
   28.9180   37.4980   23.4120 C   0  0  0  0  0  0  0  0  0  0  0  0
   39.4920   36.2240   21.7940 C   0  0  0  0  0  0  0  0  0  0  0  0
   40.8800   36.1040   21.0830 C   0  0  0  0  0  0  0  0  0  0  0  0
   32.8240   37.4800   22.1880 C   0  0  0  0  0  0  0  0  0  0  0  0
  1  7  1  0
  2 13  1  0
  2  9  1  0
  3 10  1  0
  4  8  1  0
  5 23  2  0
  6 19  2  0
  7 17  2  0
  7 18  1  0
  9 12  1  0
  9  8  1  0
 10 24  1  0
 10 12  1  0
 11 16  1  0
 11 21  1  0
 13  3  1  0
 15  2  1  0
 15 22  1  0
 16 24  1  0
 18 11  1  0
 19 16  1  0
 19 20  1  0
 22 23  1  0
 22  4  1  0
 23 14  1  0
M  END
$$$$

     RDKit          3D

 15 16  0  0  0  0  0  0  0  0999 V2000
   35.1270   36.6380   20.4420 C   0  0  0  0  0  0  0  0  0  0  0  0
   39.3050   37.3500   23.0350 C   0  0  0  0  0  0  0  0  0  0  0  0
   32.8960   38.0820   20.8820 C   0  0  0  0  0  0  0  0  0  0  0  0
   32.0490   38.8340   21.8810 C   0  0  0  0  0  0  0  0  0  0  0  0
   35.2590   38.4040   22.2070 C   0  0  0  0  0  0  0  0  0  0  0  0
   32.3250   37.8760   19.5200 C   0  0  0  0  0  0  0  0  0  0  0  0
   37.1960   36.8550   21.8320 C   0  0  0  0  0  0  0  0  0  0  0  0
   38.6610   36.3070   22.1930 C   0  0  0  0  0  0  0  0  0  0  0  0
   34.4200   37.8010   21.2470 C   0  0  0  0  0  0  0  0  0  0  0  0
   39.5060   37.4830   20.3590 N   0  0  0  0  0  0  0  0  0  0  0  0
   34.6270   35.9500   19.3790 N   0  0  0  0  0  0  0  0  0  0  0  0
   39.8620   36.9960   21.6990 C   0  0  0  0  0  0  0  0  0  0  0  0
   36.3940   36.2480   20.9030 N   0  0  0  0  0  0  0  0  0  0  0  0
   36.5870   37.8850   22.5620 C   0  0  0  0  0  0  0  0  0  0  0  0
   40.8750   36.0380   21.6820 O   0  0  0  0  0  0  0  0  0  0  0  0
  1 13  2  0
  1  9  1  0
  3  9  1  0
  3  4  1  0
  5 14  1  0
  6  3  1  0
  7 14  2  0
  8  7  1  0
  8  2  1  0
  9  5  2  0
 11  1  1  0
 12 10  1  0
 12  8  1  0
 12  2  1  0
 13  7  1  0
 15 12  1  0
M  END
$$$$

     RDKit          3D

  9  8  0  0  0  0  0  0  0  0999 V2000
   36.0960   37.1090   19.3670 C   0  0  0  0  0  0  0  0  0  0  0  0
   39.3840   35.8690   22.5070 O   0  0  0  0  0  0  0  0  0  0  0  0
   36.4420   38.3430   19.0230 O   0  0  0  0  0  0  0  0  0  0  0  0
   38.9320   38.1000   21.5490 O   0  0  0  0  0  0  0  0  0  0  0  0
   34.8430   36.7640   19.8010 O   0  0  0  0  0  0  0  0  0  0  0  0
   38.6070   36.6760   21.3510 P   0  0  0  0  0  0  0  0  0  0  0  0
   38.7260   36.2730   19.6400 C   0  0  0  0  0  0  0  0  0  0  0  0
   37.2720   36.1830   21.8070 O   0  0  0  0  0  0  0  0  0  0  0  0
   37.1650   36.0290   19.0930 C   0  0  0  0  0  0  0  0  0  0  0  0
  1  5  1  0
  3  1  2  0
  6  4  2  0
  6  8  1  0
  6  2  1  0
  7  6  1  0
  9  1  1  0
  9  7  1  0
M  END
$$$$

     RDKit          3D

  6  5  0  0  0  0  0  0  0  0999 V2000
   36.1490   37.3630   21.5030 C   0  0  0  0  0  0  0  0  0  0  0  0
   36.6260   35.9130   21.1720 C   0  0  0  0  0  0  0  0  0  0  0  0
   39.0110   36.4570   21.3840 C   0  0  0  0  0  0  0  0  0  0  0  0
   39.0170   36.4470   19.8030 C   0  0  0  0  0  0  0  0  0  0  0  0
   39.5970   35.8060   19.1420 N   0  0  0  0  0  0  0  0  0  0  0  0
   37.9110   35.5800   21.8740 N   0  0  0  0  0  0  0  0  0  0  0  0
  2  1  1  0
  2  6  1  0
  3  6  1  0
  4  3  1  0
  5  4  2  0
M  END
$$$$

     RDKit          3D

 14 14  0  0  0  0  0  0  0  0999 V2000
   38.6820   36.2240   19.2320 C   0  0  0  0  0  0  0  0  0  0  0  0
   39.1510   36.9270   17.6690 S   0  0  0  0  0  0  0  0  0  0  0  0
   36.0450   39.4110   20.1920 C   0  0  0  0  0  0  0  0  0  0  0  0
   41.1340   34.9660   18.5990 Br  0  0  0  0  0  0  0  0  0  0  0  0
   38.2930   35.0180   22.1540 N   0  0  0  0  0  0  0  0  0  0  0  0
   34.2640   37.8590   20.3370 O   0  0  0  0  0  0  0  0  0  0  0  0
   38.4870   36.4700   21.3770 P   0  0  0  0  0  0  0  0  0  0  0  0
   35.1740   40.6080   20.3250 O   0  0  0  0  0  0  0  0  0  0  0  0
   40.5160   35.6430   20.9220 O   0  0  0  0  0  0  0  0  0  0  0  0
   39.9970   35.7150   19.7950 C   0  0  0  0  0  0  0  0  0  0  0  0
   37.1800   36.5650   19.5680 C   0  0  0  0  0  0  0  0  0  0  0  0
   37.1800   36.9960   21.0220 O   0  0  0  0  0  0  0  0  0  0  0  0
   36.6700   37.3940   18.6770 O   0  0  0  0  0  0  0  0  0  0  0  0
   35.6950   38.0840   19.6100 C   0  0  0  0  0  0  0  0  0  0  0  0
  1  2  1  0
  1 11  1  0
  1 10  1  0
  1  7  1  0
  3  8  1  0
  4 10  1  0
  7  5  1  0
 10  9  2  0
 11 13  1  0
 11 12  1  0
 12  7  1  0
 13 14  1  0
 14  3  1  0
 14  6  2  0
M  END
$$$$

     RDKit          3D

 18 17  0  0  0  0  0  0  0  0999 V2000
   32.1850   36.3150   18.7330 O   0  0  0  0  0  0  0  0  0  0  0  0
   34.9020   38.2890   21.9820 C   0  0  0  0  0  0  0  0  0  0  0  0
   39.4440   39.3770   21.7220 O   0  0  0  0  0  0  0  0  0  0  0  0
   36.5090   36.5130   23.2700 C   0  0  0  0  0  0  0  0  0  0  0  0
   36.6280   35.2530   24.3580 C   0  0  0  0  0  0  0  0  0  0  0  0
   39.0300   36.7310   23.1000 C   0  0  0  0  0  0  0  0  0  0  0  0
   34.3470   35.7350   22.4400 C   0  0  0  0  0  0  0  0  0  0  0  0
   39.9670   37.9890   20.0500 O   0  0  0  0  0  0  0  0  0  0  0  0
   39.8110   38.0780   21.2360 C   0  0  0  0  0  0  0  0  0  0  0  0
   39.9960   36.8110   22.0590 C   0  0  0  0  0  0  0  0  0  0  0  0
   33.2740   36.2810   20.5910 N   0  0  0  0  0  0  0  0  0  0  0  0
   40.1260   35.5630   21.4240 N   0  0  0  0  0  0  0  0  0  0  0  0
   33.3160   35.5640   21.6630 C   0  0  0  0  0  0  0  0  0  0  0  0
   32.4730   34.5750   22.0420 N   0  0  0  0  0  0  0  0  0  0  0  0
   32.2500   36.6620   19.9330 C   0  0  0  0  0  0  0  0  0  0  0  0
   31.2920   37.7970   20.4080 C   0  0  0  0  0  0  0  0  0  0  0  0
   35.3160   36.8620   22.3940 C   0  0  0  0  0  0  0  0  0  0  0  0
   37.6890   37.3170   23.2450 C   0  0  0  0  0  0  0  0  0  0  0  0
  1 15  2  0
  4  5  1  0
  6 18  1  0
  8  9  2  0
  9  3  1  0
  9 10  1  0
 10 12  1  0
 10  6  1  0
 11 13  1  0
 13 14  2  0
 13  7  1  0
 15 16  1  0
 15 11  1  0
 17  2  1  0
 17  7  1  0
 17  4  1  0
 18  4  1  0
M  END
$$$$

     RDKit          3D

 16 16  0  0  0  0  0  0  0  0999 V2000
   33.8040   37.7910   20.0290 C   0  0  0  0  0  0  0  0  0  0  0  0
   39.1800   36.4140   23.3220 C   0  0  0  0  0  0  0  0  0  0  0  0
   36.0370   36.8940   20.9390 C   0  0  0  0  0  0  0  0  0  0  0  0
   39.9640   37.0850   21.3540 C   0  0  0  0  0  0  0  0  0  0  0  0
   38.3700   37.7060   23.3780 C   0  0  0  0  0  0  0  0  0  0  0  0
   33.2680   35.2820   19.1610 N   0  0  0  0  0  0  0  0  0  0  0  0
   32.5030   36.2850   18.7380 C   0  0  0  0  0  0  0  0  0  0  0  0
   36.8660   39.3360   22.2080 C   0  0  0  0  0  0  0  0  0  0  0  0
   39.2750   35.9940   21.9470 N   0  0  0  0  0  0  0  0  0  0  0  0
   32.6440   37.5310   19.3070 C   0  0  0  0  0  0  0  0  0  0  0  0
   34.7130   36.7430   20.2340 C   0  0  0  0  0  0  0  0  0  0  0  0
   37.1460   40.1600   23.1080 O   0  0  0  0  0  0  0  0  0  0  0  0
   37.0420   37.2870   21.2120 N   0  0  0  0  0  0  0  0  0  0  0  0
   34.4510   35.4950   19.7270 C   0  0  0  0  0  0  0  0  0  0  0  0
   37.1140   37.8820   22.5470 C   0  0  0  0  0  0  0  0  0  0  0  0
   36.3030   39.6540   21.1550 O   0  0  0  0  0  0  0  0  0  0  0  0
  1 11  1  0
  2  5  1  0
  3 13  1  0
  4  9  1  0
  6 14  1  0
  7  6  2  0
  7 10  1  0
  8 15  1  0
  8 12  1  0
  9  2  1  0
 10  1  2  0
 11  3  1  0
 13 15  1  0
 14 11  2  0
 15  5  1  0
 16  8  2  0
M  END
$$$$

     RDKit          3D

  7  6  0  0  0  0  0  0  0  0999 V2000
   37.5500   37.8420   21.9450 O   0  0  0  0  0  0  0  0  0  0  0  0
   38.5350   37.5170   19.1530 O   0  0  0  0  0  0  0  0  0  0  0  0
   37.4580   36.8130   19.8300 C   0  0  0  0  0  0  0  0  0  0  0  0
   35.5460   38.3360   20.7500 C   0  0  0  0  0  0  0  0  0  0  0  0
   36.8750   37.6960   20.9140 C   0  0  0  0  0  0  0  0  0  0  0  0
   35.0710   38.1440   19.4300 O   0  0  0  0  0  0  0  0  0  0  0  0
   37.9780   35.4620   20.2820 C   0  0  0  0  0  0  0  0  0  0  0  0
  2  3  1  0
  3  7  1  0
  3  5  1  0
  4  5  1  0
  5  1  2  0
  6  4  1  0
M  END
$$$$

     RDKit          3D

  6  5  0  0  0  0  0  0  0  0999 V2000
   35.3760   36.8690   19.8710 O   0  0  0  0  0  0  0  0  0  0  0  0
   36.2350   36.9680   18.8160 C   0  0  0  0  0  0  0  0  0  0  0  0
   38.0100   37.5680   20.7580 O   0  0  0  0  0  0  0  0  0  0  0  0
   37.3850   36.2060   18.9560 C   0  0  0  0  0  0  0  0  0  0  0  0
   39.0790   35.6320   20.5460 O   0  0  0  0  0  0  0  0  0  0  0  0
   38.1780   36.4590   20.2180 C   0  0  0  0  0  0  0  0  0  0  0  0
  2  4  1  0
  2  1  1  0
  4  6  1  0
  6  5  2  0
  6  3  1  0
M  END
$$$$

     RDKit          3D

 17 17  0  0  0  0  0  0  0  0999 V2000
   31.9440   35.4030   20.1260 C   0  0  0  0  0  0  0  0  0  0  0  0
   35.5780   36.1090   22.1520 N   0  0  0  0  0  0  0  0  0  0  0  0
   34.4100   35.9530   21.4430 C   0  0  0  0  0  0  0  0  0  0  0  0
   33.1970   35.9840   22.2040 C   0  0  0  0  0  0  0  0  0  0  0  0
   34.3640   35.6490   20.0440 C   0  0  0  0  0  0  0  0  0  0  0  0
   39.3200   37.4800   21.5240 C   0  0  0  0  0  0  0  0  0  0  0  0
   33.1060   35.3700   19.3540 C   0  0  0  0  0  0  0  0  0  0  0  0
   37.6120   39.2890   22.9060 C   0  0  0  0  0  0  0  0  0  0  0  0
   38.3650   38.2930   21.8910 C   0  0  0  0  0  0  0  0  0  0  0  0
   36.7310   35.9990   21.2600 C   0  0  0  0  0  0  0  0  0  0  0  0
   40.1150   36.7680   21.0500 O   0  0  0  0  0  0  0  0  0  0  0  0
   37.6880   40.5790   22.8020 O   0  0  0  0  0  0  0  0  0  0  0  0
   31.9770   35.7360   21.6120 C   0  0  0  0  0  0  0  0  0  0  0  0
   30.6910   35.7570   22.3480 N   0  0  0  0  0  0  0  0  0  0  0  0
   36.7380   38.7560   23.7020 O   0  0  0  0  0  0  0  0  0  0  0  0
   37.0790   37.7230   20.8040 S   0  0  0  0  0  0  0  0  0  0  0  0
   30.6870   35.2420   19.5250 N   0  0  0  0  0  0  0  0  0  0  0  0
  1 13  1  0
  3  2  1  0
  3  4  1  0
  5  3  2  0
  6  9  2  0
  7  5  1  0
  7  1  2  0
  8 15  1  0
  9  8  1  0
 10  2  1  0
 11  6  2  0
 12  8  2  0
 13  4  2  0
 13 14  1  0
 16 10  1  0
 16  9  1  0
 17  1  1  0
M  END
$$$$

     RDKit          3D

 13 13  0  0  0  0  0  0  0  0999 V2000
   34.8040   36.6320   19.6560 O   0  0  0  0  0  0  0  0  0  0  0  0
   33.7040   34.6980   16.5610 O   0  0  0  0  0  0  0  0  0  0  0  0
   35.6630   39.7040   21.2210 O   0  0  0  0  0  0  0  0  0  0  0  0
   37.0600   36.2650   22.7610 O   0  0  0  0  0  0  0  0  0  0  0  0
   36.2980   35.5080   18.2090 O   0  0  0  0  0  0  0  0  0  0  0  0
   35.6960   36.4900   20.8770 C   0  0  0  0  0  0  0  0  0  0  0  0
   37.2990   38.0460   20.5930 O   0  0  0  0  0  0  0  0  0  0  0  0
   33.7600   35.5140   17.7340 C   0  0  0  0  0  0  0  0  0  0  0  0
   37.5460   39.2730   22.6930 O   0  0  0  0  0  0  0  0  0  0  0  0
   36.5700   38.7390   21.8130 P   0  0  0  0  0  0  0  0  0  0  0  0
   37.0090   36.7540   20.3630 C   0  0  0  0  0  0  0  0  0  0  0  0
   34.9310   35.5390   18.7090 C   0  0  0  0  0  0  0  0  0  0  0  0
   36.0740   37.1340   22.2590 C   0  0  0  0  0  0  0  0  0  0  0  0
  2  8  1  0
  6  1  1  0
  6 13  1  0
  7 10  1  0
  8 12  1  0
 10  3  2  0
 10 13  1  0
 10  9  1  0
 11  7  1  0
 11  6  1  0
 12  5  1  0
 12  1  1  0
 13  4  1  0
M  END
$$$$

     RDKit          3D

 26 27  0  0  0  0  0  0  0  0999 V2000
   32.5940   37.4060   21.2610 C   0  0  0  0  0  0  0  0  0  0  0  0
   38.8950   38.0680   22.9060 C   0  0  0  0  0  0  0  0  0  0  0  0
   30.5920   34.7760   20.6440 C   0  0  0  0  0  0  0  0  0  0  0  0
   29.6720   35.8370   18.0770 C   0  0  0  0  0  0  0  0  0  0  0  0
   41.6130   38.0440   20.3740 C   0  0  0  0  0  0  0  0  0  0  0  0
   31.0560   36.1610   18.6280 C   0  0  0  0  0  0  0  0  0  0  0  0
   29.6510   33.8210   19.8880 C   0  0  0  0  0  0  0  0  0  0  0  0
   31.0910   37.2680   20.9280 C   0  0  0  0  0  0  0  0  0  0  0  0
   37.6600   34.8540   24.5470 C   0  0  0  0  0  0  0  0  0  0  0  0
   37.7570   34.1800   23.2460 N   0  0  0  0  0  0  0  0  0  0  0  0
   33.2280   36.1300   21.7790 C   0  0  0  0  0  0  0  0  0  0  0  0
   34.2780   35.5820   23.8060 C   0  0  0  0  0  0  0  0  0  0  0  0
   29.1370   34.4700   18.5710 C   0  0  0  0  0  0  0  0  0  0  0  0
   36.1720   34.8700   24.9840 C   0  0  0  0  0  0  0  0  0  0  0  0
   34.3600   36.5970   22.6680 C   0  0  0  0  0  0  0  0  0  0  0  0
   30.9150   36.0100   20.0980 C   0  0  0  0  0  0  0  0  0  0  0  0
   39.9340   39.0960   21.7100 C   0  0  0  0  0  0  0  0  0  0  0  0
   35.6100   35.9460   24.3850 O   0  0  0  0  0  0  0  0  0  0  0  0
   40.5380   40.0170   22.5860 O   0  0  0  0  0  0  0  0  0  0  0  0
   38.1120   36.6560   22.9530 C   0  0  0  0  0  0  0  0  0  0  0  0
   39.1090   38.3820   21.7140 C   0  0  0  0  0  0  0  0  0  0  0  0
   38.7340   38.9570   23.8200 C   0  0  0  0  0  0  0  0  0  0  0  0
   41.3190   38.6430   21.3430 O   0  0  0  0  0  0  0  0  0  0  0  0
   38.0720   36.3420   24.4760 C   0  0  0  0  0  0  0  0  0  0  0  0
   37.2750   36.9950   21.4750 C   0  0  0  0  0  0  0  0  0  0  0  0
   38.2170   37.7760   20.7040 O   0  0  0  0  0  0  0  0  0  0  0  0
  1 11  1  0
  2 20  1  0
  2 22  2  0
  4 13  1  0
  4  6  1  0
  5 23  1  0
  6 16  1  0
  7  3  1  0
  8  1  1  0
  9 10  1  0
  9 14  1  0
 11 15  1  0
 12 18  1  0
 13  7  1  0
 15 12  1  0
 16  3  1  0
 16  8  1  0
 17 19  2  0
 18 14  1  0
 20 24  1  0
 21 17  1  0
 21  2  1  0
 23 17  1  0
 24  9  1  0
 25 20  1  0
 26 25  1  0
 26 21  1  0
M  END
$$$$

     RDKit          3D

 18 19  0  0  0  0  0  0  0  0999 V2000
   34.2960   35.5890   20.4670 N   0  0  0  0  0  0  0  0  0  0  0  0
   35.1700   37.7340   21.4240 C   0  0  0  0  0  0  0  0  0  0  0  0
   39.1520   36.6280   22.5560 C   0  0  0  0  0  0  0  0  0  0  0  0
   39.6020   35.4760   21.9290 N   0  0  0  0  0  0  0  0  0  0  0  0
   37.6730   38.6100   22.1400 C   0  0  0  0  0  0  0  0  0  0  0  0
   34.0800   35.1670   19.0690 C   0  0  0  0  0  0  0  0  0  0  0  0
   38.9080   39.3380   22.6110 C   0  0  0  0  0  0  0  0  0  0  0  0
   32.9000   34.4050   19.0310 O   0  0  0  0  0  0  0  0  0  0  0  0
   37.8930   37.1270   21.8320 C   0  0  0  0  0  0  0  0  0  0  0  0
   39.3880   37.2210   23.9050 C   0  0  0  0  0  0  0  0  0  0  0  0
   39.2680   38.7390   23.9440 C   0  0  0  0  0  0  0  0  0  0  0  0
   34.6390   37.4690   19.0510 N   0  0  0  0  0  0  0  0  0  0  0  0
   33.7550   36.5090   18.3640 C   0  0  0  0  0  0  0  0  0  0  0  0
   38.0180   36.8090   20.4440 O   0  0  0  0  0  0  0  0  0  0  0  0
   35.0790   36.8580   20.3030 C   0  0  0  0  0  0  0  0  0  0  0  0
   37.1650   39.3060   20.8940 C   0  0  0  0  0  0  0  0  0  0  0  0
   34.5420   37.4340   22.6570 O   0  0  0  0  0  0  0  0  0  0  0  0
   35.6450   39.1410   20.9460 C   0  0  0  0  0  0  0  0  0  0  0  0
  2 17  1  0
  3  4  1  0
  3 10  1  0
  5 16  1  0
  5  7  1  0
  6  8  1  0
  6  1  1  0
  7 11  1  0
  9 14  1  0
  9  5  1  0
  9  3  1  0
 10 11  1  0
 12 15  1  0
 13 12  1  0
 13  6  1  0
 15  1  1  0
 15  2  1  0
 16 18  1  0
 18  2  1  0
M  END
$$$$
