
     RDKit          3D

 10  9  0  0  0  0  0  0  0  0999 V2000
   36.5680   39.8970   23.2970 C   0  0  0  0  0  0  0  0  0  0  0  0
   36.2750   36.9050   23.3520 O   0  0  0  0  0  0  0  0  0  0  0  0
   37.9590   38.1230   26.1690 C   0  0  0  0  0  0  0  0  0  0  0  0
   37.3190   40.8670   21.2380 C   0  0  0  0  0  0  0  0  0  0  0  0
   37.2030   37.6410   23.5540 C   0  0  0  0  0  0  0  0  0  0  0  0
   38.9850   40.4120   22.7370 O   0  0  0  0  0  0  0  0  0  0  0  0
   37.8980   39.1780   25.2630 O   0  0  0  0  0  0  0  0  0  0  0  0
   37.7320   39.9090   22.3070 C   0  0  0  0  0  0  0  0  0  0  0  0
   38.4520   37.5560   23.2160 O   0  0  0  0  0  0  0  0  0  0  0  0
   36.8170   38.8710   24.3880 C   0  0  0  0  0  0  0  0  0  0  0  0
  2  5  1  0
  5 10  1  0
  7  3  1  0
  8  4  1  0
  8  6  1  0
  8  1  1  0
  9  5  2  0
 10  1  1  0
 10  7  1  0
M  END
$$$$

     RDKit          3D

 13 13  0  0  0  0  0  0  0  0999 V2000
   33.9730   39.8760   21.8870 C   0  0  0  0  0  0  0  0  0  0  0  0
   38.7950   39.3610   23.4790 C   0  0  0  0  0  0  0  0  0  0  0  0
   36.4780   37.4670   25.1070 C   0  0  0  0  0  0  0  0  0  0  0  0
   34.5460   38.8660   22.7770 N   0  0  0  0  0  0  0  0  0  0  0  0
   39.3520   39.5130   24.6060 O   0  0  0  0  0  0  0  0  0  0  0  0
   39.3830   39.4070   22.3390 O   0  0  0  0  0  0  0  0  0  0  0  0
   37.7170   37.3290   25.8410 O   0  0  0  0  0  0  0  0  0  0  0  0
   34.6920   36.9010   21.2240 C   0  0  0  0  0  0  0  0  0  0  0  0
   35.3680   37.7960   22.1770 C   0  0  0  0  0  0  0  0  0  0  0  0
   36.3770   38.9000   24.6050 C   0  0  0  0  0  0  0  0  0  0  0  0
   34.9100   39.2080   24.1800 C   0  0  0  0  0  0  0  0  0  0  0  0
   36.9070   37.9400   22.3330 C   0  0  0  0  0  0  0  0  0  0  0  0
   37.2630   39.0880   23.3620 C   0  0  0  0  0  0  0  0  0  0  0  0
  1  4  1  0
  2  5  1  0
  3  7  1  0
  4 11  1  0
  6  2  2  0
  9  8  1  0
  9 12  1  0
  9  4  1  0
 10  3  1  0
 11 10  1  0
 12 13  1  0
 13  2  1  0
 13 10  1  0
M  END
$$$$

     RDKit          3D

 18 19  0  0  0  0  0  0  0  0999 V2000
   34.5340   39.8530   21.5700 C   0  0  0  0  0  0  0  0  0  0  0  0
   35.6050   39.3080   23.5810 C   0  0  0  0  0  0  0  0  0  0  0  0
   33.0380   37.4220   21.2110 N   0  0  0  0  0  0  0  0  0  0  0  0
   34.4250   38.8380   22.6040 N   0  0  0  0  0  0  0  0  0  0  0  0
   34.8890   36.3810   22.3240 C   0  0  0  0  0  0  0  0  0  0  0  0
   36.1720   40.2360   23.4220 O   0  0  0  0  0  0  0  0  0  0  0  0
   38.3400   37.4410   26.9800 N   0  0  0  0  0  0  0  0  0  0  0  0
   35.6410   38.5610   24.6420 N   0  0  0  0  0  0  0  0  0  0  0  0
   34.5510   35.2640   21.6280 N   0  0  0  0  0  0  0  0  0  0  0  0
   35.7440   36.2600   23.1570 O   0  0  0  0  0  0  0  0  0  0  0  0
   40.5220   38.4370   26.1480 C   0  0  0  0  0  0  0  0  0  0  0  0
   36.8540   38.3570   25.3600 C   0  0  0  0  0  0  0  0  0  0  0  0
   33.1470   39.1810   23.3620 C   0  0  0  0  0  0  0  0  0  0  0  0
   38.2290   38.6790   24.9480 C   0  0  0  0  0  0  0  0  0  0  0  0
   33.9610   37.6470   22.1320 C   0  0  0  0  0  0  0  0  0  0  0  0
   32.9550   40.1980   22.2750 C   0  0  0  0  0  0  0  0  0  0  0  0
   39.0480   38.2080   26.0560 N   0  0  0  0  0  0  0  0  0  0  0  0
   36.9610   37.6640   26.6450 C   0  0  0  0  0  0  0  0  0  0  0  0
  1 16  1  0
  1  4  1  0
  2  8  1  0
  3 15  2  0
  4 13  1  0
  4  2  1  0
  5 10  2  0
  6  2  2  0
  8 12  2  3
  9  5  1  0
 12 18  1  0
 14 12  1  0
 14 17  1  0
 15  5  1  0
 15  4  1  0
 16 13  1  0
 17 11  1  0
 17  7  1  0
 18  7  1  0
M  END
$$$$

     RDKit          3D

 16 17  0  0  0  0  0  0  0  0999 V2000
   39.8250   37.9950   25.6280 N   0  0  0  0  0  0  0  0  0  0  0  0
   37.6190   38.9110   24.3220 C   0  0  0  0  0  0  0  0  0  0  0  0
   36.3810   38.9170   24.7660 N   0  0  0  0  0  0  0  0  0  0  0  0
   33.4140   37.1850   22.7410 C   0  0  0  0  0  0  0  0  0  0  0  0
   30.5920   36.6140   23.5260 O   0  0  0  0  0  0  0  0  0  0  0  0
   38.4220   36.9920   27.4470 C   0  0  0  0  0  0  0  0  0  0  0  0
   38.4610   38.0230   26.3320 C   0  0  0  0  0  0  0  0  0  0  0  0
   31.0010   37.7930   22.9150 C   0  0  0  0  0  0  0  0  0  0  0  0
   32.8240   39.5500   23.3080 C   0  0  0  0  0  0  0  0  0  0  0  0
   38.2940   39.5240   23.5820 O   0  0  0  0  0  0  0  0  0  0  0  0
   35.1790   38.7430   23.8890 C   0  0  0  0  0  0  0  0  0  0  0  0
   34.8830   37.4190   23.1260 C   0  0  0  0  0  0  0  0  0  0  0  0
   37.3260   37.8500   25.2940 C   0  0  0  0  0  0  0  0  0  0  0  0
   32.4110   38.0970   23.4580 C   0  0  0  0  0  0  0  0  0  0  0  0
   34.2090   39.7800   23.9670 C   0  0  0  0  0  0  0  0  0  0  0  0
   35.7130   36.5120   22.9890 O   0  0  0  0  0  0  0  0  0  0  0  0
  1  7  1  0
  2  3  1  0
  2 13  1  0
  3 13  1  0
  4 12  1  0
  4 14  1  0
  7  6  1  0
  8  5  1  0
  9 14  1  0
  9 15  1  0
 10  2  2  0
 11 15  2  0
 11  3  1  0
 12 11  1  0
 13  7  1  0
 14  8  1  0
 16 12  2  0
M  END
$$$$

     RDKit          3D

 14 15  0  0  0  0  0  0  0  0999 V2000
   29.3520   36.8920   33.0070 C   0  0  0  0  0  0  0  0  0  0  0  0
   26.4740   37.9860   33.7380 C   0  0  0  0  0  0  0  0  0  0  0  0
   29.6120   38.0100   32.1570 O   0  0  0  0  0  0  0  0  0  0  0  0
   25.1050   36.3200   32.2360 C   0  0  0  0  0  0  0  0  0  0  0  0
   27.1510   37.3400   32.4950 C   0  0  0  0  0  0  0  0  0  0  0  0
   30.7120   36.0590   34.9640 O   0  0  0  0  0  0  0  0  0  0  0  0
   28.0660   36.1190   32.5950 C   0  0  0  0  0  0  0  0  0  0  0  0
   29.6540   36.1180   34.2530 C   0  0  0  0  0  0  0  0  0  0  0  0
   30.6690   37.3360   32.3350 C   0  0  0  0  0  0  0  0  0  0  0  0
   31.7790   37.0790   32.4320 O   0  0  0  0  0  0  0  0  0  0  0  0
   28.7090   35.2340   34.8410 O   0  0  0  0  0  0  0  0  0  0  0  0
   25.0390   38.5490   33.4840 C   0  0  0  0  0  0  0  0  0  0  0  0
   24.2380   37.5240   32.5660 C   0  0  0  0  0  0  0  0  0  0  0  0
   26.2860   36.9350   31.4740 C   0  0  0  0  0  0  0  0  0  0  0  0
  1  7  1  0
  1  8  1  0
  3  9  1  0
  3  1  1  0
  4 13  1  0
  5  7  1  0
  5  2  1  0
  8 11  2  0
  8  6  1  0
  9 10  2  0
  9  1  1  0
 12  2  1  0
 13 12  1  0
 14  4  1  0
 14  5  1  0
M  END
$$$$

     RDKit          3D

 16 17  0  0  0  0  0  0  0  0999 V2000
   37.2480   37.9150   25.9260 N   0  0  0  0  0  0  0  0  0  0  0  0
   35.3510   38.6050   23.5580 C   0  0  0  0  0  0  0  0  0  0  0  0
   33.2380   38.4240   22.2830 C   0  0  0  0  0  0  0  0  0  0  0  0
   38.8910   37.0170   27.3860 N   0  0  0  0  0  0  0  0  0  0  0  0
   35.2640   35.3590   21.4900 C   0  0  0  0  0  0  0  0  0  0  0  0
   35.6870   37.2880   23.1000 C   0  0  0  0  0  0  0  0  0  0  0  0
   36.1860   39.4700   24.3650 C   0  0  0  0  0  0  0  0  0  0  0  0
   38.4280   39.6390   25.2640 C   0  0  0  0  0  0  0  0  0  0  0  0
   37.2250   39.0140   25.1160 C   0  0  0  0  0  0  0  0  0  0  0  0
   34.2190   39.2050   22.9130 C   0  0  0  0  0  0  0  0  0  0  0  0
   34.8370   36.5910   22.2060 C   0  0  0  0  0  0  0  0  0  0  0  0
   38.4680   37.9720   26.5230 C   0  0  0  0  0  0  0  0  0  0  0  0
   33.9950   40.7180   22.8290 C   0  0  0  0  0  0  0  0  0  0  0  0
   36.8960   36.7480   23.5180 O   0  0  0  0  0  0  0  0  0  0  0  0
   39.2080   39.0350   26.1250 N   0  0  0  0  0  0  0  0  0  0  0  0
   33.5560   37.1190   21.9240 C   0  0  0  0  0  0  0  0  0  0  0  0
  1 12  2  0
  2  7  1  0
  3 10  1  0
  5 11  1  0
  6 14  1  0
  6  2  1  0
  8 15  2  0
  9  7  1  0
  9  8  1  0
  9  1  1  0
 10  2  2  0
 11  6  2  0
 12  4  1  0
 13 10  1  0
 15 12  1  0
 16 11  1  0
 16  3  2  0
M  END
$$$$

     RDKit          3D

 14 13  0  0  0  0  0  0  0  0999 V2000
   34.1590   38.6260   23.1230 C   0  0  0  0  0  0  0  0  0  0  0  0
   35.8290   38.4500   22.7440 C   0  0  0  0  0  0  0  0  0  0  0  0
   38.6980   38.5470   25.5570 O   0  0  0  0  0  0  0  0  0  0  0  0
   36.8070   40.5870   22.5600 O   0  0  0  0  0  0  0  0  0  0  0  0
   33.8830   39.9430   23.8980 C   0  0  0  0  0  0  0  0  0  0  0  0
   37.8430   39.1610   21.1890 C   0  0  0  0  0  0  0  0  0  0  0  0
   33.3710   38.2760   22.0310 C   0  0  0  0  0  0  0  0  0  0  0  0
   39.6940   40.1750   24.2620 O   0  0  0  0  0  0  0  0  0  0  0  0
   35.7380   37.4670   21.6650 O   0  0  0  0  0  0  0  0  0  0  0  0
   38.9800   39.1170   24.3700 C   0  0  0  0  0  0  0  0  0  0  0  0
   35.9160   38.0740   24.0870 C   0  0  0  0  0  0  0  0  0  0  0  0
   37.3280   39.1900   22.6160 C   0  0  0  0  0  0  0  0  0  0  0  0
   36.6030   36.7400   23.9020 O   0  0  0  0  0  0  0  0  0  0  0  0
   38.4840   38.4580   23.3510 N   0  0  0  0  0  0  0  0  0  0  0  0
  1  5  1  0
  2  9  1  0
  2  1  1  0
  2 11  1  0
  4 12  1  0
  7  1  1  0
  8 10  2  0
 10  3  1  0
 12  6  1  0
 12  2  1  0
 12 14  1  0
 13 11  1  0
 14 10  1  0
M  END
$$$$

     RDKit          3D

 10 10  0  0  0  0  0  0  0  0999 V2000
   37.5200   37.9730   24.8600 S   0  0  0  0  0  0  0  0  0  0  0  0
   35.5160   39.3710   23.6570 C   0  0  0  0  0  0  0  0  0  0  0  0
   36.7030   41.1100   22.8130 O   0  0  0  0  0  0  0  0  0  0  0  0
   35.3980   40.4780   22.9130 C   0  0  0  0  0  0  0  0  0  0  0  0
   39.7870   39.0690   23.9030 O   0  0  0  0  0  0  0  0  0  0  0  0
   37.6740   40.2470   23.5100 N   0  0  0  0  0  0  0  0  0  0  0  0
   36.5260   36.9060   24.3640 O   0  0  0  0  0  0  0  0  0  0  0  0
   37.7110   38.0020   26.2030 O   0  0  0  0  0  0  0  0  0  0  0  0
   36.8420   39.3470   24.0040 C   0  0  0  0  0  0  0  0  0  0  0  0
   39.2060   38.5640   25.0320 C   0  0  0  0  0  0  0  0  0  0  0  0
  1 10  1  0
  1  8  2  0
  2  9  1  0
  3  4  1  0
  3  6  1  0
  4  2  2  0
  5 10  1  0
  6  9  2  0
  7  1  2  0
  9  1  1  0
M  END
$$$$

     RDKit          3D

 23 24  0  0  0  0  0  0  0  0999 V2000
   36.8680   36.9220   25.2120 O   0  0  0  0  0  0  0  0  0  0  0  0
   32.1990   38.4890   23.2110 C   0  0  0  0  0  0  0  0  0  0  0  0
   38.8230   38.5040   25.6170 C   0  0  0  0  0  0  0  0  0  0  0  0
   31.6050   36.5600   22.3540 N   0  0  0  0  0  0  0  0  0  0  0  0
   39.3090   39.2730   22.4010 N   0  0  0  0  0  0  0  0  0  0  0  0
   35.4860   37.6520   22.5450 C   0  0  0  0  0  0  0  0  0  0  0  0
   34.3500   39.6600   23.3810 C   0  0  0  0  0  0  0  0  0  0  0  0
   32.6340   39.5840   23.5520 C   0  0  0  0  0  0  0  0  0  0  0  0
   30.6350   36.8970   23.2030 C   0  0  0  0  0  0  0  0  0  0  0  0
   38.2740   36.9670   27.7030 C   0  0  0  0  0  0  0  0  0  0  0  0
   34.5040   38.3890   22.6200 C   0  0  0  0  0  0  0  0  0  0  0  0
   29.5900   36.2880   23.4220 O   0  0  0  0  0  0  0  0  0  0  0  0
   32.6610   37.4310   22.3580 C   0  0  0  0  0  0  0  0  0  0  0  0
   37.8790   38.4530   22.3220 C   0  0  0  0  0  0  0  0  0  0  0  0
   30.9270   38.3550   23.5580 C   0  0  0  0  0  0  0  0  0  0  0  0
   37.2280   39.2640   24.0710 C   0  0  0  0  0  0  0  0  0  0  0  0
   38.7990   38.1420   26.9770 N   0  0  0  0  0  0  0  0  0  0  0  0
   39.8420   39.2230   25.0770 N   0  0  0  0  0  0  0  0  0  0  0  0
   37.4960   38.1780   21.1190 O   0  0  0  0  0  0  0  0  0  0  0  0
   37.6220   38.0670   24.7880 C   0  0  0  0  0  0  0  0  0  0  0  0
   40.1300   39.5950   23.5690 C   0  0  0  0  0  0  0  0  0  0  0  0
   36.4660   38.6370   22.9070 C   0  0  0  0  0  0  0  0  0  0  0  0
   41.1960   40.0060   22.9740 O   0  0  0  0  0  0  0  0  0  0  0  0
  2  8  1  0
  2 15  1  0
  3 17  1  0
  4 13  1  0
  4  9  1  0
  5 21  1  0
  6 11  1  0
  7  8  1  0
  9 12  2  0
  9 15  1  0
 11  7  1  0
 13  2  1  0
 14  5  1  0
 14 22  1  0
 16 20  1  0
 17 10  1  0
 18  3  2  0
 19 14  2  0
 20  1  1  0
 20  3  1  0
 21 18  1  0
 22  6  1  0
 22 16  1  0
 23 21  2  0
M  END
$$$$

     RDKit          3D

 15 14  0  0  0  0  0  0  0  0999 V2000
   39.8620   38.7820   24.4330 C   0  0  0  0  0  0  0  0  0  0  0  0
   37.1810   40.0090   21.9460 S   0  0  0  0  0  0  0  0  0  0  0  0
   36.5690   36.6790   24.4870 O   0  0  0  0  0  0  0  0  0  0  0  0
   37.4540   41.4800   22.9330 C   0  0  0  0  0  0  0  0  0  0  0  0
   32.9520   39.6690   21.9120 C   0  0  0  0  0  0  0  0  0  0  0  0
   32.6040   40.8280   21.1160 C   0  0  0  0  0  0  0  0  0  0  0  0
   34.7910   39.4700   23.8730 C   0  0  0  0  0  0  0  0  0  0  0  0
   37.9380   38.4150   22.9120 C   0  0  0  0  0  0  0  0  0  0  0  0
   36.1820   39.0810   24.5110 C   0  0  0  0  0  0  0  0  0  0  0  0
   33.3700   40.0710   23.4180 C   0  0  0  0  0  0  0  0  0  0  0  0
   36.7300   37.8930   23.7170 C   0  0  0  0  0  0  0  0  0  0  0  0
   33.1070   38.3070   21.5700 C   0  0  0  0  0  0  0  0  0  0  0  0
   38.3250   37.1780   22.2360 N   0  0  0  0  0  0  0  0  0  0  0  0
   39.1180   39.2050   23.5190 C   0  0  0  0  0  0  0  0  0  0  0  0
   36.8030   39.2820   25.4540 O   0  0  0  0  0  0  0  0  0  0  0  0
  2  8  1  0
  2  4  1  0
  5 10  1  0
  6  5  1  0
  7  9  1  0
  8 13  1  0
  8 14  1  0
  8 11  1  0
  9 15  2  0
 10  7  1  0
 11  3  1  0
 11  9  1  0
 12  5  1  0
 14  1  2  0
M  END
$$$$

     RDKit          3D

 15 15  0  0  0  0  0  0  0  0999 V2000
   32.3990   40.6800   22.3910 O   0  0  0  0  0  0  0  0  0  0  0  0
   36.8310   38.9890   24.5250 C   0  0  0  0  0  0  0  0  0  0  0  0
   38.1150   38.3260   25.0300 C   0  0  0  0  0  0  0  0  0  0  0  0
   36.6860   36.8750   23.4810 O   0  0  0  0  0  0  0  0  0  0  0  0
   33.7420   40.7540   22.1370 C   0  0  0  0  0  0  0  0  0  0  0  0
   37.7090   37.8330   26.4150 C   0  0  0  0  0  0  0  0  0  0  0  0
   34.8090   38.4450   23.0070 C   0  0  0  0  0  0  0  0  0  0  0  0
   36.2070   37.8790   23.6540 C   0  0  0  0  0  0  0  0  0  0  0  0
   38.5730   36.9200   27.3040 C   0  0  0  0  0  0  0  0  0  0  0  0
   37.1720   40.2320   23.6180 C   0  0  0  0  0  0  0  0  0  0  0  0
   36.0340   40.8430   23.0930 N   0  0  0  0  0  0  0  0  0  0  0  0
   34.3250   41.2640   21.0860 O   0  0  0  0  0  0  0  0  0  0  0  0
   39.4260   37.9100   25.1850 O   0  0  0  0  0  0  0  0  0  0  0  0
   38.3350   40.3990   23.4930 O   0  0  0  0  0  0  0  0  0  0  0  0
   34.7400   40.1510   23.1780 C   0  0  0  0  0  0  0  0  0  0  0  0
  2  3  1  0
  3 13  1  0
  3  6  2  3
  4  8  2  0
  5  1  1  0
  6  9  1  0
  7 15  1  0
  7  8  1  0
  8  2  1  0
 10  2  1  0
 11 15  1  0
 11 10  1  0
 12  5  2  0
 14 10  2  0
 15  5  1  0
M  END
$$$$

     RDKit          3D

 15 15  0  0  0  0  0  0  0  0999 V2000
   30.8010   37.1650   23.8600 O   0  0  0  0  0  0  0  0  0  0  0  0
   38.1000   38.2340   23.5000 O   0  0  0  0  0  0  0  0  0  0  0  0
   38.0680   37.8880   26.4160 C   0  0  0  0  0  0  0  0  0  0  0  0
   32.8070   40.9100   22.1390 O   0  0  0  0  0  0  0  0  0  0  0  0
   35.4650   38.8030   23.4510 C   0  0  0  0  0  0  0  0  0  0  0  0
   38.3130   36.9190   27.5370 C   0  0  0  0  0  0  0  0  0  0  0  0
   31.8530   39.1190   23.4830 N   0  0  0  0  0  0  0  0  0  0  0  0
   36.1790   36.4710   23.3170 O   0  0  0  0  0  0  0  0  0  0  0  0
   36.7970   37.7530   23.9250 S   0  0  0  0  0  0  0  0  0  0  0  0
   33.0110   39.7430   22.7140 C   0  0  0  0  0  0  0  0  0  0  0  0
   31.4450   37.7090   21.4610 C   0  0  0  0  0  0  0  0  0  0  0  0
   31.3410   38.0310   22.9350 C   0  0  0  0  0  0  0  0  0  0  0  0
   34.3000   38.9380   22.5590 C   0  0  0  0  0  0  0  0  0  0  0  0
   35.6900   39.6710   22.2240 C   0  0  0  0  0  0  0  0  0  0  0  0
   37.0680   37.2990   25.5330 N   0  0  0  0  0  0  0  0  0  0  0  0
  2  9  2  0
  3  6  1  0
  4 10  2  0
  5  9  1  0
  8  9  2  0
  9 15  1  0
 10  7  1  0
 11 12  1  0
 12  7  1  0
 12  1  2  0
 13 10  1  0
 13  5  1  0
 14 13  1  0
 14  5  1  0
 15  3  1  0
M  END
$$$$

     RDKit          3D

 11 11  0  0  0  0  0  0  0  0999 V2000
   39.3520   38.1530   25.2890 C   0  0  0  0  0  0  0  0  0  0  0  0
   36.2260   39.0110   23.5440 N   0  0  0  0  0  0  0  0  0  0  0  0
   35.1210   40.8860   22.8670 C   0  0  0  0  0  0  0  0  0  0  0  0
   36.7320   39.1620   22.1880 C   0  0  0  0  0  0  0  0  0  0  0  0
   39.0480   37.7990   26.7910 N   0  0  0  0  0  0  0  0  0  0  0  0
   37.7950   37.9200   26.8380 C   0  0  0  0  0  0  0  0  0  0  0  0
   36.3940   36.8730   24.6730 O   0  0  0  0  0  0  0  0  0  0  0  0
   38.1240   38.8660   24.9900 O   0  0  0  0  0  0  0  0  0  0  0  0
   36.3640   40.6240   21.9900 C   0  0  0  0  0  0  0  0  0  0  0  0
   36.8860   38.1580   24.3710 S   0  0  0  0  0  0  0  0  0  0  0  0
   34.8500   39.5690   23.6030 C   0  0  0  0  0  0  0  0  0  0  0  0
  1  5  1  0
  2 11  1  0
  2 10  1  0
  3 11  1  0
  4  2  1  0
  5  6  1  0
  8  1  1  0
  9  4  1  0
  9  3  1  0
 10  7  2  0
 10  8  1  0
M  END
$$$$

     RDKit          3D

 15 15  0  0  0  0  0  0  0  0999 V2000
   38.2390   36.1210   25.5340 O   0  0  0  0  0  0  0  0  0  0  0  0
   33.2000   41.4080   21.0390 C   0  0  0  0  0  0  0  0  0  0  0  0
   37.1990   38.0160   26.1140 N   0  0  0  0  0  0  0  0  0  0  0  0
   33.3120   40.1820   21.9280 C   0  0  0  0  0  0  0  0  0  0  0  0
   34.9470   39.1090   23.3090 N   0  0  0  0  0  0  0  0  0  0  0  0
   37.0370   40.3200   23.8150 C   0  0  0  0  0  0  0  0  0  0  0  0
   36.4840   38.1030   24.9460 C   0  0  0  0  0  0  0  0  0  0  0  0
   38.3330   36.6820   27.6960 C   0  0  0  0  0  0  0  0  0  0  0  0
   35.6420   36.8790   22.8240 C   0  0  0  0  0  0  0  0  0  0  0  0
   37.8470   36.9640   26.3420 C   0  0  0  0  0  0  0  0  0  0  0  0
   32.1940   40.1340   22.9700 C   0  0  0  0  0  0  0  0  0  0  0  0
   36.2670   37.0890   24.4730 C   0  0  0  0  0  0  0  0  0  0  0  0
   36.0090   39.2030   24.1430 C   0  0  0  0  0  0  0  0  0  0  0  0
   34.7950   37.9550   22.6880 C   0  0  0  0  0  0  0  0  0  0  0  0
   34.6260   40.1300   22.5690 N   0  0  0  0  0  0  0  0  0  0  0  0
  1 10  2  0
  2  4  1  0
  3 10  1  0
  4 15  1  0
  4 11  1  0
  5 13  1  0
  7  3  1  0
  9 12  1  0
 10  8  1  0
 12  7  2  0
 13  6  1  0
 13  7  1  0
 14  9  1  0
 14  5  1  0
 15  5  1  0
M  END
$$$$

     RDKit          3D

 15 15  0  0  0  0  0  0  0  0999 V2000
   34.2780   40.4790   23.4710 C   0  0  0  0  0  0  0  0  0  0  0  0
   35.1700   39.3520   23.7150 C   0  0  0  0  0  0  0  0  0  0  0  0
   40.1210   40.0810   24.2410 O   0  0  0  0  0  0  0  0  0  0  0  0
   39.7960   39.6380   25.3460 C   0  0  0  0  0  0  0  0  0  0  0  0
   38.6190   38.6520   25.4210 C   0  0  0  0  0  0  0  0  0  0  0  0
   32.9690   40.2900   22.9170 C   0  0  0  0  0  0  0  0  0  0  0  0
   33.4630   37.9090   22.6460 C   0  0  0  0  0  0  0  0  0  0  0  0
   37.4240   39.1050   24.8650 C   0  0  0  0  0  0  0  0  0  0  0  0
   36.3940   39.5550   24.5010 N   0  0  0  0  0  0  0  0  0  0  0  0
   34.7810   38.1620   23.1320 C   0  0  0  0  0  0  0  0  0  0  0  0
   32.5620   38.9760   22.5870 C   0  0  0  0  0  0  0  0  0  0  0  0
   40.3940   39.9530   26.3890 O   0  0  0  0  0  0  0  0  0  0  0  0
   35.9300   37.1380   22.9360 C   0  0  0  0  0  0  0  0  0  0  0  0
   37.1030   37.4030   22.6470 O   0  0  0  0  0  0  0  0  0  0  0  0
   35.4230   35.9160   22.8770 O   0  0  0  0  0  0  0  0  0  0  0  0
  1  2  1  0
  2  9  1  0
  3  4  2  0
  4  5  1  0
  4 12  1  0
  6  1  2  0
  7 10  1  0
  8  5  1  0
  9  8  1  0
 10  2  2  0
 11  7  2  0
 11  6  1  0
 13 10  1  0
 14 13  2  0
 15 13  1  0
M  END
$$$$

     RDKit          3D

 12 12  0  0  0  0  0  0  0  0999 V2000
   37.8950   39.2090   25.9710 C   0  0  0  0  0  0  0  0  0  0  0  0
   37.9670   39.8640   27.2640 O   0  0  0  0  0  0  0  0  0  0  0  0
   39.0580   40.2870   22.5570 C   0  0  0  0  0  0  0  0  0  0  0  0
   38.4860   39.0060   24.5270 C   0  0  0  0  0  0  0  0  0  0  0  0
   37.5510   36.2210   28.4500 C   0  0  0  0  0  0  0  0  0  0  0  0
   37.9370   39.3120   22.2030 C   0  0  0  0  0  0  0  0  0  0  0  0
   39.3060   37.8270   28.0190 O   0  0  0  0  0  0  0  0  0  0  0  0
   38.9220   41.3820   24.7730 O   0  0  0  0  0  0  0  0  0  0  0  0
   38.2800   37.3010   27.6390 C   0  0  0  0  0  0  0  0  0  0  0  0
   37.3590   38.8290   23.4990 C   0  0  0  0  0  0  0  0  0  0  0  0
   39.3330   40.2190   24.0530 C   0  0  0  0  0  0  0  0  0  0  0  0
   37.7140   37.6260   26.2180 C   0  0  0  0  0  0  0  0  0  0  0  0
  1 12  1  0
  1  2  1  0
  3 11  1  0
  4  1  1  0
  6  3  1  0
  6 10  1  0
  9  7  2  0
  9  5  1  0
 10  4  1  0
 11  4  1  0
 11  8  1  0
 12  9  1  0
M  END
$$$$

     RDKit          3D

 18 19  0  0  0  0  0  0  0  0999 V2000
   37.9060   39.8390   24.2480 C   0  0  0  0  0  0  0  0  0  0  0  0
   38.3250   37.0830   27.6020 C   0  0  0  0  0  0  0  0  0  0  0  0
   39.1200   39.3640   26.5150 C   0  0  0  0  0  0  0  0  0  0  0  0
   38.9320   40.2200   25.2880 C   0  0  0  0  0  0  0  0  0  0  0  0
   36.4430   36.2700   23.7280 O   0  0  0  0  0  0  0  0  0  0  0  0
   35.1400   38.1560   23.0300 C   0  0  0  0  0  0  0  0  0  0  0  0
   32.7180   37.8400   22.2250 C   0  0  0  0  0  0  0  0  0  0  0  0
   36.7540   37.7030   23.1280 S   0  0  0  0  0  0  0  0  0  0  0  0
   39.8970   41.2890   24.9330 C   0  0  0  0  0  0  0  0  0  0  0  0
   32.2750   38.9610   22.9180 C   0  0  0  0  0  0  0  0  0  0  0  0
   34.6050   39.3150   23.6260 C   0  0  0  0  0  0  0  0  0  0  0  0
   41.1780   40.9200   25.3050 O   0  0  0  0  0  0  0  0  0  0  0  0
   38.0040   38.3950   26.8820 C   0  0  0  0  0  0  0  0  0  0  0  0
   37.3700   38.4970   24.4130 N   0  0  0  0  0  0  0  0  0  0  0  0
   34.0580   37.4630   22.2640 C   0  0  0  0  0  0  0  0  0  0  0  0
   33.2290   39.6560   23.6610 C   0  0  0  0  0  0  0  0  0  0  0  0
   37.3750   38.2080   21.9570 O   0  0  0  0  0  0  0  0  0  0  0  0
   37.1430   37.9610   25.7290 C   0  0  0  0  0  0  0  0  0  0  0  0
  1 14  1  0
  1  4  1  0
  3 13  1  0
  4  9  1  0
  4  3  1  0
  6  8  1  0
  6 11  1  0
  7 15  1  0
  7 10  2  0
  8  5  2  0
  8 14  1  0
  9 12  1  0
 10 16  1  0
 11 16  2  0
 13  2  1  0
 14 18  1  0
 15  6  2  0
 17  8  2  0
 18 13  1  0
M  END
$$$$

     RDKit          3D

 11 10  0  0  0  0  0  0  0  0999 V2000
   37.3780   38.8810   24.3790 C   0  0  0  0  0  0  0  0  0  0  0  0
   36.7030   40.0770   22.3070 O   0  0  0  0  0  0  0  0  0  0  0  0
   38.3310   37.5930   26.1430 C   0  0  0  0  0  0  0  0  0  0  0  0
   33.8260   39.4690   23.0680 C   0  0  0  0  0  0  0  0  0  0  0  0
   37.2310   37.5650   25.1240 C   0  0  0  0  0  0  0  0  0  0  0  0
   35.0210   38.6530   23.5060 C   0  0  0  0  0  0  0  0  0  0  0  0
   38.5230   39.5240   24.4440 O   0  0  0  0  0  0  0  0  0  0  0  0
   35.4450   37.4060   22.7730 C   0  0  0  0  0  0  0  0  0  0  0  0
   35.4990   37.6280   21.3540 O   0  0  0  0  0  0  0  0  0  0  0  0
   36.2590   39.5310   23.5700 C   0  0  0  0  0  0  0  0  0  0  0  0
   38.0410   36.4830   27.1460 C   0  0  0  0  0  0  0  0  0  0  0  0
  1  7  1  0
  1  5  1  0
  3 11  1  0
  5  3  1  0
  6  4  1  0
  6 10  1  0
  8  6  1  0
  9  8  1  0
 10  2  1  0
 10  1  1  0
M  END
$$$$

     RDKit          3D

 28 31  0  0  0  0  0  0  0  0999 V2000
   35.8760   37.0550   23.8590 C   0  0  0  0  0  0  0  0  0  0  0  0
   32.6040   39.3700   23.6490 C   0  0  0  0  0  0  0  0  0  0  0  0
   39.0660   42.4480   25.1880 C   0  0  0  0  0  0  0  0  0  0  0  0
   31.5760   38.6840   22.8100 C   0  0  0  0  0  0  0  0  0  0  0  0
   39.3620   40.0780   25.2510 C   0  0  0  0  0  0  0  0  0  0  0  0
   30.6170   39.7580   22.2200 C   0  0  0  0  0  0  0  0  0  0  0  0
   30.8450   37.6720   23.5420 C   0  0  0  0  0  0  0  0  0  0  0  0
   36.3020   38.4590   24.4210 C   0  0  0  0  0  0  0  0  0  0  0  0
   41.1330   41.7830   23.9450 C   0  0  0  0  0  0  0  0  0  0  0  0
   37.0320   38.4630   25.7350 C   0  0  0  0  0  0  0  0  0  0  0  0
   34.0140   38.9480   23.1450 C   0  0  0  0  0  0  0  0  0  0  0  0
   38.3310   37.3200   27.3420 C   0  0  0  0  0  0  0  0  0  0  0  0
   33.6550   38.0650   21.9640 C   0  0  0  0  0  0  0  0  0  0  0  0
   40.2850   40.6680   25.8370 C   0  0  0  0  0  0  0  0  0  0  0  0
   39.5040   38.7930   25.7720 N   0  0  0  0  0  0  0  0  0  0  0  0
   32.2000   37.9330   21.6170 C   0  0  0  0  0  0  0  0  0  0  0  0
   37.3750   40.4110   23.4690 C   0  0  0  0  0  0  0  0  0  0  0  0
   36.9570   37.8620   23.1980 C   0  0  0  0  0  0  0  0  0  0  0  0
   38.4450   40.9980   24.4390 C   0  0  0  0  0  0  0  0  0  0  0  0
   40.8040   38.3570   26.2170 C   0  0  0  0  0  0  0  0  0  0  0  0
   39.8390   41.0630   27.2970 O   0  0  0  0  0  0  0  0  0  0  0  0
   38.3280   38.2130   26.3660 C   0  0  0  0  0  0  0  0  0  0  0  0
   36.3340   40.2420   22.2490 C   0  0  0  0  0  0  0  0  0  0  0  0
   40.5560   42.0050   25.4010 C   0  0  0  0  0  0  0  0  0  0  0  0
   34.8020   40.2350   22.7960 C   0  0  0  0  0  0  0  0  0  0  0  0
   41.5580   42.9010   26.0190 C   0  0  0  0  0  0  0  0  0  0  0  0
   36.6980   38.5690   21.5610 S   0  0  0  0  0  0  0  0  0  0  0  0
   33.8970   40.6730   21.7300 C   0  0  0  0  0  0  0  0  0  0  0  0
  3 24  1  0
  4  7  1  0
  4  2  1  0
  5 15  1  0
  5 14  1  0
  6  4  1  0
  8  1  1  0
  8 10  1  0
  9 24  1  0
 10 22  1  0
 11 25  1  0
 11  2  1  0
 13 11  1  0
 14 21  1  0
 15 20  1  0
 15 22  1  0
 16 13  2  0
 16  4  1  0
 18  1  1  0
 18  8  1  0
 19 17  1  0
 19  3  1  0
 19  5  1  0
 22 12  2  0
 23 25  1  0
 23 17  1  0
 24 14  1  0
 24 26  1  0
 25 28  1  0
 27 23  1  0
 27 18  1  0
M  END
$$$$

     RDKit          3D

 10 10  0  0  0  0  0  0  0  0999 V2000
   37.7190   37.7100   24.6590 C   0  0  0  0  0  0  0  0  0  0  0  0
   33.6210   39.7390   23.3980 O   0  0  0  0  0  0  0  0  0  0  0  0
   34.7090   39.0790   22.7350 C   0  0  0  0  0  0  0  0  0  0  0  0
   36.7810   38.8480   24.9640 N   0  0  0  0  0  0  0  0  0  0  0  0
   35.9930   39.1550   23.7060 C   0  0  0  0  0  0  0  0  0  0  0  0
   36.9380   40.0120   22.9340 O   0  0  0  0  0  0  0  0  0  0  0  0
   37.5980   36.9040   25.8680 O   0  0  0  0  0  0  0  0  0  0  0  0
   40.0660   38.4160   24.2630 O   0  0  0  0  0  0  0  0  0  0  0  0
   38.7300   38.6100   23.7950 C   0  0  0  0  0  0  0  0  0  0  0  0
   38.5960   39.6390   22.9320 S   0  0  0  0  0  0  0  0  0  0  0  0
  1  4  1  0
  1  7  1  0
  3  2  1  0
  3  5  1  0
  5  4  2  0
  6  5  1  0
  9  8  2  0
  9  1  1  0
 10  6  1  0
 10  9  1  0
M  END
$$$$
