
     RDKit          3D

  9  9  0  0  0  0  0  0  0  0999 V2000
   41.4330   41.0180   31.6810 C   0  0  0  0  0  0  0  0  0  0  0  0
   43.7180   42.2600   29.1300 O   0  0  0  0  0  0  0  0  0  0  0  0
   40.5750   39.9390   31.8780 C   0  0  0  0  0  0  0  0  0  0  0  0
   41.1850   39.0230   29.7170 C   0  0  0  0  0  0  0  0  0  0  0  0
   43.2200   42.2270   30.2850 C   0  0  0  0  0  0  0  0  0  0  0  0
   43.6880   43.1250   31.1290 O   0  0  0  0  0  0  0  0  0  0  0  0
   42.1770   41.0940   30.4930 C   0  0  0  0  0  0  0  0  0  0  0  0
   42.0240   40.1050   29.5050 C   0  0  0  0  0  0  0  0  0  0  0  0
   40.4510   38.9470   30.8940 C   0  0  0  0  0  0  0  0  0  0  0  0
  1  3  1  0
  2  5  2  0
  4  9  1  0
  5  7  1  0
  5  6  1  0
  7  1  2  0
  8  4  2  0
  8  7  1  0
  9  3  2  0
M  END
$$$$

     RDKit          3D

  8  7  0  0  0  0  0  0  0  0999 V2000
   45.7550   40.9170   29.3110 O   0  0  0  0  0  0  0  0  0  0  0  0
   45.3950   41.1370   32.1270 O   0  0  0  0  0  0  0  0  0  0  0  0
   43.8890   40.2160   30.4430 N   0  0  0  0  0  0  0  0  0  0  0  0
   44.5050   39.9390   31.7930 C   0  0  0  0  0  0  0  0  0  0  0  0
   44.6150   40.3920   29.1650 C   0  0  0  0  0  0  0  0  0  0  0  0
   41.3800   40.2070   29.1960 C   0  0  0  0  0  0  0  0  0  0  0  0
   42.4460   39.9530   30.1870 C   0  0  0  0  0  0  0  0  0  0  0  0
   41.0150   41.1910   28.4670 C   0  0  0  0  0  0  0  0  0  0  0  0
  3  4  1  0
  4  2  1  0
  5  1  1  0
  5  3  1  0
  6  7  1  0
  7  3  1  0
  8  6  2  0
M  END
$$$$

     RDKit          3D

  9  8  0  0  0  0  0  0  0  0999 V2000
   42.3320   40.1560   29.3190 C   0  0  0  0  0  0  0  0  0  0  0  0
   41.2310   39.6930   30.3610 C   0  0  0  0  0  0  0  0  0  0  0  0
   46.0050   41.0770   29.1660 O   0  0  0  0  0  0  0  0  0  0  0  0
   43.8960   41.8840   27.8190 O   0  0  0  0  0  0  0  0  0  0  0  0
   41.7250   39.8650   31.8250 N   0  0  0  0  0  0  0  0  0  0  0  0
   44.3900   42.8740   30.1550 O   0  0  0  0  0  0  0  0  0  0  0  0
   44.5120   41.6560   29.2710 P   0  0  0  0  0  0  0  0  0  0  0  0
   39.9290   40.3650   30.1310 N   0  0  0  0  0  0  0  0  0  0  0  0
   43.7430   40.3810   29.8540 O   0  0  0  0  0  0  0  0  0  0  0  0
  1  9  1  0
  1  2  1  0
  2  5  1  0
  3  7  1  0
  4  7  2  0
  7  9  1  0
  7  6  1  0
  8  2  1  0
M  END
$$$$

     RDKit          3D

  6  5  0  0  0  0  0  0  0  0999 V2000
   44.1950   39.8190   29.6760 S   0  0  0  0  0  0  0  0  0  0  0  0
   42.2090   41.5300   30.6650 C   0  0  0  0  0  0  0  0  0  0  0  0
   41.1250   39.7440   31.3070 O   0  0  0  0  0  0  0  0  0  0  0  0
   42.3380   41.9620   32.1520 C   0  0  0  0  0  0  0  0  0  0  0  0
   42.4160   40.0420   30.5290 C   0  0  0  0  0  0  0  0  0  0  0  0
   41.3650   42.4430   33.6310 S   0  0  0  0  0  0  0  0  0  0  0  0
  1  5  1  0
  2  4  1  0
  4  6  1  0
  5  2  1  0
  5  3  2  0
M  END
$$$$

     RDKit          3D

 10 10  0  0  0  0  0  0  0  0999 V2000
   41.3300   43.3710   29.3520 O   0  0  0  0  0  0  0  0  0  0  0  0
   40.6850   39.9550   30.3050 C   0  0  0  0  0  0  0  0  0  0  0  0
   40.5680   39.1670   31.4920 O   0  0  0  0  0  0  0  0  0  0  0  0
   43.0770   41.1560   28.0040 O   0  0  0  0  0  0  0  0  0  0  0  0
   40.5330   41.4430   30.6190 C   0  0  0  0  0  0  0  0  0  0  0  0
   42.1090   39.7870   29.7670 C   0  0  0  0  0  0  0  0  0  0  0  0
   42.5120   41.1740   29.3080 C   0  0  0  0  0  0  0  0  0  0  0  0
   41.1370   41.9880   29.2810 C   0  0  0  0  0  0  0  0  0  0  0  0
   43.0750   39.4560   30.7900 O   0  0  0  0  0  0  0  0  0  0  0  0
   39.1850   41.9330   30.8240 O   0  0  0  0  0  0  0  0  0  0  0  0
  2  5  1  0
  2  3  1  0
  5 10  1  0
  6  2  1  0
  6  9  1  0
  7  4  1  0
  7  6  1  0
  8  7  1  0
  8  1  1  0
  8  5  1  0
M  END
$$$$

     RDKit          3D

 18 19  0  0  0  0  0  0  0  0999 V2000
   39.0780   41.3110   26.1960 O   0  0  0  0  0  0  0  0  0  0  0  0
   40.2550   40.1800   30.3730 O   0  0  0  0  0  0  0  0  0  0  0  0
   41.7180   42.8970   30.6330 C   0  0  0  0  0  0  0  0  0  0  0  0
   41.1970   39.1840   32.0950 N   0  0  0  0  0  0  0  0  0  0  0  0
   40.3780   42.2900   30.7390 C   0  0  0  0  0  0  0  0  0  0  0  0
   38.1470   40.4860   27.0780 P   0  0  0  0  0  0  0  0  0  0  0  0
   37.8890   39.1240   26.3810 O   0  0  0  0  0  0  0  0  0  0  0  0
   40.3070   41.9670   29.0130 C   0  0  0  0  0  0  0  0  0  0  0  0
   39.7580   37.2640   30.2950 S   0  0  0  0  0  0  0  0  0  0  0  0
   39.0470   40.3600   28.5450 O   0  0  0  0  0  0  0  0  0  0  0  0
   41.4950   40.3830   32.1700 C   0  0  0  0  0  0  0  0  0  0  0  0
   36.9710   41.3460   27.6070 O   0  0  0  0  0  0  0  0  0  0  0  0
   42.7670   40.7940   32.8920 C   0  0  0  0  0  0  0  0  0  0  0  0
   41.9890   42.8830   28.8290 S   0  0  0  0  0  0  0  0  0  0  0  0
   40.7650   41.1790   31.2770 C   0  0  0  0  0  0  0  0  0  0  0  0
   38.8940   41.6580   29.0010 C   0  0  0  0  0  0  0  0  0  0  0  0
   40.5950   39.1170   30.9590 C   0  0  0  0  0  0  0  0  0  0  0  0
   38.6450   36.5980   29.1420 C   0  0  0  0  0  0  0  0  0  0  0  0
  1  6  2  0
  2 17  1  0
  4 11  1  0
  5  3  1  0
  5 15  1  0
  6 12  1  0
  6 10  1  0
  7  6  1  0
  8 16  1  0
  8  5  1  0
  9 17  1  0
 10 16  1  0
 11 13  1  0
 14  8  1  0
 14  3  1  0
 15  2  1  0
 15 11  1  0
 17  4  2  0
 18  9  1  0
M  END
$$$$

     RDKit          3D

 22 24  0  0  0  0  0  0  0  0999 V2000
   45.0190   41.7460   31.4830 C   0  0  0  0  0  0  0  0  0  0  0  0
   39.4370   38.8980   28.7260 C   0  0  0  0  0  0  0  0  0  0  0  0
   36.7620   40.9320   25.8340 C   0  0  0  0  0  0  0  0  0  0  0  0
   36.0350   40.5470   24.6960 C   0  0  0  0  0  0  0  0  0  0  0  0
   44.4510   40.8530   28.7100 S   0  0  0  0  0  0  0  0  0  0  0  0
   36.5240   42.1470   26.7630 C   0  0  0  0  0  0  0  0  0  0  0  0
   43.6330   41.2180   31.0790 C   0  0  0  0  0  0  0  0  0  0  0  0
   39.7630   38.0950   29.7110 N   0  0  0  0  0  0  0  0  0  0  0  0
   42.8430   40.0360   31.2230 C   0  0  0  0  0  0  0  0  0  0  0  0
   41.6080   40.2540   30.6260 C   0  0  0  0  0  0  0  0  0  0  0  0
   41.0450   37.9260   32.0780 O   0  0  0  0  0  0  0  0  0  0  0  0
   43.1850   41.7660   29.7770 C   0  0  0  0  0  0  0  0  0  0  0  0
   39.3320   40.3100   28.5310 N   0  0  0  0  0  0  0  0  0  0  0  0
   41.5980   41.7110   29.9940 C   0  0  0  0  0  0  0  0  0  0  0  0
   38.3840   40.9480   27.6360 C   0  0  0  0  0  0  0  0  0  0  0  0
   40.4900   38.3550   30.8820 C   0  0  0  0  0  0  0  0  0  0  0  0
   36.2710   39.4430   24.0460 O   0  0  0  0  0  0  0  0  0  0  0  0
   39.1750   40.5650   30.0340 C   0  0  0  0  0  0  0  0  0  0  0  0
   35.0150   41.2240   24.2850 O   0  0  0  0  0  0  0  0  0  0  0  0
   40.2710   39.8060   30.8610 C   0  0  0  0  0  0  0  0  0  0  0  0
   37.9600   40.2150   26.3130 C   0  0  0  0  0  0  0  0  0  0  0  0
   37.4190   41.8890   28.0160 C   0  0  0  0  0  0  0  0  0  0  0  0
  2  8  1  0
  3  4  1  0
  3 21  1  0
  3  6  1  0
  6 22  1  0
  7  9  1  0
  7  1  1  0
  8 16  1  0
 10 14  1  0
 10 20  1  0
 10  9  1  0
 12  5  1  0
 12 14  1  0
 12  7  1  0
 13  2  1  0
 13 18  1  0
 15 21  1  0
 15 22  1  0
 15 13  1  0
 16 11  2  0
 17  4  2  0
 19  4  1  0
 20 18  1  0
 20 16  1  0
M  END
$$$$

     RDKit          3D

 10  9  0  0  0  0  0  0  0  0999 V2000
   40.4530   43.2360   29.7300 N   0  0  0  0  0  0  0  0  0  0  0  0
   41.6520   40.6260   31.0650 O   0  0  0  0  0  0  0  0  0  0  0  0
   40.4000   41.4890   28.4080 C   0  0  0  0  0  0  0  0  0  0  0  0
   40.6030   44.3840   27.8720 F   0  0  0  0  0  0  0  0  0  0  0  0
   42.3700   38.7460   30.2420 N   0  0  0  0  0  0  0  0  0  0  0  0
   40.2740   39.4180   29.5940 N   0  0  0  0  0  0  0  0  0  0  0  0
   38.8520   43.1310   27.9700 F   0  0  0  0  0  0  0  0  0  0  0  0
   41.4350   39.6990   30.3430 C   0  0  0  0  0  0  0  0  0  0  0  0
   39.5210   40.6150   29.1590 O   0  0  0  0  0  0  0  0  0  0  0  0
   40.1140   43.0560   28.4480 C   0  0  0  0  0  0  0  0  0  0  0  0
  3 10  1  0
  3  9  1  0
  4 10  1  0
  5  8  1  0
  6  8  1  0
  7 10  1  0
  8  2  2  0
  9  6  1  0
 10  1  1  0
M  END
$$$$

     RDKit          3D

 11 11  0  0  0  0  0  0  0  0999 V2000
   40.2930   42.1320   29.5240 C   0  0  0  0  0  0  0  0  0  0  0  0
   40.8620   40.8000   29.1430 C   0  0  0  0  0  0  0  0  0  0  0  0
   39.0940   42.9450   31.8810 C   0  0  0  0  0  0  0  0  0  0  0  0
   39.1890   41.9900   30.5260 C   0  0  0  0  0  0  0  0  0  0  0  0
   42.8960   39.8320   30.5480 C   0  0  0  0  0  0  0  0  0  0  0  0
   41.3750   39.9560   30.3280 C   0  0  0  0  0  0  0  0  0  0  0  0
   38.8250   42.2040   29.3540 O   0  0  0  0  0  0  0  0  0  0  0  0
   40.9350   43.1920   28.7370 O   0  0  0  0  0  0  0  0  0  0  0  0
   45.0950   40.8570   30.0940 C   0  0  0  0  0  0  0  0  0  0  0  0
   43.9530   39.9790   29.4830 N   0  0  0  0  0  0  0  0  0  0  0  0
   43.3630   40.6370   28.3060 C   0  0  0  0  0  0  0  0  0  0  0  0
  1  8  1  0
  1  4  1  0
  2  1  1  0
  2  6  1  0
  4  3  1  0
  6  5  1  0
  7  1  1  0
  7  4  1  0
 10  9  1  0
 10  5  1  0
 11 10  1  0
M  END
$$$$

     RDKit          3D

 19 21  0  0  0  0  0  0  0  0999 V2000
   39.5000   40.9490   28.6420 C   0  0  0  0  0  0  0  0  0  0  0  0
   41.5090   40.8710   27.6690 C   0  0  0  0  0  0  0  0  0  0  0  0
   40.2380   37.9090   30.2680 C   0  0  0  0  0  0  0  0  0  0  0  0
   40.4660   40.1480   29.4070 C   0  0  0  0  0  0  0  0  0  0  0  0
   38.0320   42.0640   24.4500 C   0  0  0  0  0  0  0  0  0  0  0  0
   41.6700   40.2240   28.7950 N   0  0  0  0  0  0  0  0  0  0  0  0
   40.1610   40.9280   27.3670 C   0  0  0  0  0  0  0  0  0  0  0  0
   37.8500   42.6070   25.8230 N   0  0  0  0  0  0  0  0  0  0  0  0
   39.9030   39.6070   34.9140 N   0  0  0  0  0  0  0  0  0  0  0  0
   39.4800   39.1530   33.7710 N   0  0  0  0  0  0  0  0  0  0  0  0
   40.2880   39.3510   30.5390 N   0  0  0  0  0  0  0  0  0  0  0  0
   38.3890   41.7930   26.7450 C   0  0  0  0  0  0  0  0  0  0  0  0
   39.3700   40.8540   26.3360 C   0  0  0  0  0  0  0  0  0  0  0  0
   40.3710   39.6910   32.8830 C   0  0  0  0  0  0  0  0  0  0  0  0
   40.1670   39.9150   31.6030 C   0  0  0  0  0  0  0  0  0  0  0  0
   41.3920   40.3480   33.5750 C   0  0  0  0  0  0  0  0  0  0  0  0
   38.3550   41.8300   28.2480 C   0  0  0  0  0  0  0  0  0  0  0  0
   41.0200   40.3540   34.8630 N   0  0  0  0  0  0  0  0  0  0  0  0
   36.4230   43.0350   26.0680 C   0  0  0  0  0  0  0  0  0  0  0  0
  1 17  1  0
  1  4  1  0
  2  6  1  0
  3 11  1  0
  4 11  1  0
  5  8  1  0
  6  4  1  0
  7 13  1  0
  7  2  1  0
  7  1  1  0
  8 19  1  0
 10  9  2  0
 11 15  1  0
 12  8  1  0
 12 17  1  0
 13 12  1  0
 14 16  2  0
 14 10  1  0
 15 14  1  0
 16 18  1  0
 18  9  1  0
M  END
$$$$

     RDKit          3D

 16 17  0  0  0  0  0  0  0  0999 V2000
   41.0090   42.3910   27.0210 N   0  0  0  0  0  0  0  0  0  0  0  0
   40.9950   40.7130   31.7930 C   0  0  0  0  0  0  0  0  0  0  0  0
   40.7930   38.8290   30.3900 C   0  0  0  0  0  0  0  0  0  0  0  0
   42.4280   40.9420   25.9370 O   0  0  0  0  0  0  0  0  0  0  0  0
   37.6700   40.6570   26.9560 C   0  0  0  0  0  0  0  0  0  0  0  0
   41.4160   40.9450   29.3450 C   0  0  0  0  0  0  0  0  0  0  0  0
   41.6090   40.0800   30.5480 C   0  0  0  0  0  0  0  0  0  0  0  0
   43.1030   39.8290   30.7590 C   0  0  0  0  0  0  0  0  0  0  0  0
   40.1480   41.5550   29.7430 O   0  0  0  0  0  0  0  0  0  0  0  0
   41.6540   40.2750   27.9940 C   0  0  0  0  0  0  0  0  0  0  0  0
   41.9040   41.3570   26.9070 C   0  0  0  0  0  0  0  0  0  0  0  0
   39.7350   41.7000   26.6300 C   0  0  0  0  0  0  0  0  0  0  0  0
   39.9240   41.5250   31.1450 C   0  0  0  0  0  0  0  0  0  0  0  0
   37.6770   41.0710   25.2520 S   0  0  0  0  0  0  0  0  0  0  0  0
   39.3890   41.4430   25.2830 C   0  0  0  0  0  0  0  0  0  0  0  0
   38.8230   41.1630   27.5610 C   0  0  0  0  0  0  0  0  0  0  0  0
  3  7  1  0
  4 11  2  0
  5 16  1  0
  6 10  1  0
  6  9  1  0
  6  7  1  0
  7  8  1  0
  7  2  1  0
  9 13  1  0
 11  1  1  0
 11 10  1  0
 12  1  1  0
 12 16  1  0
 13  2  1  0
 14 15  1  0
 14  5  1  0
 15 12  1  0
M  END
$$$$

     RDKit          3D

  9  8  0  0  0  0  0  0  0  0999 V2000
   43.0740   40.6880   30.3900 C   0  0  0  0  0  0  0  0  0  0  0  0
   40.8560   41.5300   29.9020 N   0  0  0  0  0  0  0  0  0  0  0  0
   43.4460   40.6630   28.9740 N   0  0  0  0  0  0  0  0  0  0  0  0
   41.5620   40.4540   30.6180 C   0  0  0  0  0  0  0  0  0  0  0  0
   41.2960   40.5560   32.1360 C   0  0  0  0  0  0  0  0  0  0  0  0
   41.1830   42.8650   30.0890 N   0  0  0  0  0  0  0  0  0  0  0  0
   41.2020   39.0770   30.1560 N   0  0  0  0  0  0  0  0  0  0  0  0
   39.7950   41.2650   28.9500 C   0  0  0  0  0  0  0  0  0  0  0  0
   42.9540   41.8520   28.2040 C   0  0  0  0  0  0  0  0  0  0  0  0
  1  4  1  0
  2  6  1  0
  2  4  1  0
  3  1  1  0
  4  5  1  0
  7  4  1  0
  8  2  1  0
  9  3  1  0
M  END
$$$$

     RDKit          3D

 10 10  0  0  0  0  0  0  0  0999 V2000
   40.0860   40.8870   31.4950 O   0  0  0  0  0  0  0  0  0  0  0  0
   41.9590   40.5520   29.6600 C   0  0  0  0  0  0  0  0  0  0  0  0
   42.7780   43.0810   29.0960 C   0  0  0  0  0  0  0  0  0  0  0  0
   43.7030   43.9420   28.6030 O   0  0  0  0  0  0  0  0  0  0  0  0
   43.0070   43.1300   30.8450 O   0  0  0  0  0  0  0  0  0  0  0  0
   41.5010   40.9700   31.1450 C   0  0  0  0  0  0  0  0  0  0  0  0
   42.4250   41.7260   28.6800 C   0  0  0  0  0  0  0  0  0  0  0  0
   42.6760   42.0790   32.9020 O   0  0  0  0  0  0  0  0  0  0  0  0
   43.0910   39.7460   29.6830 N   0  0  0  0  0  0  0  0  0  0  0  0
   42.0520   42.3430   31.5950 C   0  0  0  0  0  0  0  0  0  0  0  0
  2  9  1  0
  2  6  1  0
  3  5  1  0
  4  3  2  0
  5 10  1  0
  6  1  1  0
  6 10  1  0
  7  3  1  0
  7  2  1  0
 10  8  1  0
M  END
$$$$

     RDKit          3D

 11 11  0  0  0  0  0  0  0  0999 V2000
   41.9900   40.1940   31.7390 C   0  0  0  0  0  0  0  0  0  0  0  0
   39.4030   42.2820   30.0650 C   0  0  0  0  0  0  0  0  0  0  0  0
   42.3010   39.4470   30.4540 C   0  0  0  0  0  0  0  0  0  0  0  0
   41.4360   39.8850   29.2620 C   0  0  0  0  0  0  0  0  0  0  0  0
   41.6100   41.7940   26.6640 C   0  0  0  0  0  0  0  0  0  0  0  0
   40.6160   41.6700   30.3230 C   0  0  0  0  0  0  0  0  0  0  0  0
   41.7410   42.0960   28.0000 C   0  0  0  0  0  0  0  0  0  0  0  0
   41.3530   41.3650   29.1730 C   0  0  0  0  0  0  0  0  0  0  0  0
   39.2340   42.7420   28.8170 O   0  0  0  0  0  0  0  0  0  0  0  0
   40.6590   40.7240   31.5150 N   0  0  0  0  0  0  0  0  0  0  0  0
   43.6850   39.6150   30.0520 O   0  0  0  0  0  0  0  0  0  0  0  0
  3 11  1  0
  3  1  1  0
  4  3  1  0
  5  7  2  0
  6  2  1  0
  6 10  1  0
  8  7  1  0
  8  4  1  0
  8  6  1  0
  9  2  1  0
 10  1  1  0
M  END
$$$$

     RDKit          3D

  6  5  0  0  0  0  0  0  0  0999 V2000
   42.5070   41.6870   32.8930 C   0  0  0  0  0  0  0  0  0  0  0  0
   42.8650   39.9030   31.0990 C   0  0  0  0  0  0  0  0  0  0  0  0
   44.2230   40.4440   30.6260 C   0  0  0  0  0  0  0  0  0  0  0  0
   41.9110   40.9480   31.6920 C   0  0  0  0  0  0  0  0  0  0  0  0
   41.6300   41.8420   30.6470 F   0  0  0  0  0  0  0  0  0  0  0  0
   40.6940   40.3800   32.1140 F   0  0  0  0  0  0  0  0  0  0  0  0
  2  4  1  0
  3  2  1  0
  4  6  1  0
  4  1  1  0
  5  4  1  0
M  END
$$$$

     RDKit          3D

 12 11  0  0  0  0  0  0  0  0999 V2000
   39.5900   40.9450   28.9460 C   0  0  0  0  0  0  0  0  0  0  0  0
   38.7310   41.1550   27.3700 S   0  0  0  0  0  0  0  0  0  0  0  0
   43.7070   40.3160   29.4770 C   0  0  0  0  0  0  0  0  0  0  0  0
   37.3020   41.0330   27.7650 O   0  0  0  0  0  0  0  0  0  0  0  0
   38.9580   42.5430   26.8080 O   0  0  0  0  0  0  0  0  0  0  0  0
   39.2800   40.1360   26.4240 O   0  0  0  0  0  0  0  0  0  0  0  0
   40.4070   39.6560   28.9720 C   0  0  0  0  0  0  0  0  0  0  0  0
   42.7060   40.8660   30.4480 C   0  0  0  0  0  0  0  0  0  0  0  0
   40.3230   42.2080   29.5870 O   0  0  0  0  0  0  0  0  0  0  0  0
   43.2910   41.5640   31.6440 C   0  0  0  0  0  0  0  0  0  0  0  0
   41.0230   39.0690   30.2740 C   0  0  0  0  0  0  0  0  0  0  0  0
   41.8000   39.8510   31.0190 N   0  0  0  0  0  0  0  0  0  0  0  0
  1  7  1  0
  1  9  1  0
  2  4  1  0
  2  1  1  0
  3  8  1  0
  5  2  1  0
  6  2  1  0
  7 11  1  0
  8 12  1  0
  8 10  1  0
 11 12  1  0
M  END
$$$$

     RDKit          3D

 10 10  0  0  0  0  0  0  0  0999 V2000
   42.7130   41.2560   32.2160 C   0  0  0  0  0  0  0  0  0  0  0  0
   40.5180   41.5930   32.2510 C   0  0  0  0  0  0  0  0  0  0  0  0
   44.4080   40.7460   28.2190 C   0  0  0  0  0  0  0  0  0  0  0  0
   42.0550   41.6490   29.7190 C   0  0  0  0  0  0  0  0  0  0  0  0
   44.1310   39.9050   29.2150 C   0  0  0  0  0  0  0  0  0  0  0  0
   42.5330   41.9460   28.5900 C   0  0  0  0  0  0  0  0  0  0  0  0
   42.5160   40.8380   30.8000 C   0  0  0  0  0  0  0  0  0  0  0  0
   41.5700   41.7310   32.9210 N   0  0  0  0  0  0  0  0  0  0  0  0
   43.6030   40.0960   30.3580 C   0  0  0  0  0  0  0  0  0  0  0  0
   43.5490   41.7570   27.7580 C   0  0  0  0  0  0  0  0  0  0  0  0
  1  8  1  0
  2  8  1  0
  3  5  1  0
  4  7  1  0
  5  9  1  0
  6  4  2  0
  7  1  1  0
  9  7  1  0
 10  3  1  0
 10  6  1  0
M  END
$$$$

     RDKit          3D

 10 10  0  0  0  0  0  0  0  0999 V2000
   41.1770   41.7230   27.9850 O   0  0  0  0  0  0  0  0  0  0  0  0
   41.7720   42.3660   29.2670 P   0  0  0  0  0  0  0  0  0  0  0  0
   41.5160   41.0270   30.5570 C   0  0  0  0  0  0  0  0  0  0  0  0
   40.8620   43.5650   29.5570 O   0  0  0  0  0  0  0  0  0  0  0  0
   40.1320   40.9740   31.0920 O   0  0  0  0  0  0  0  0  0  0  0  0
   42.4500   40.0970   31.3540 C   0  0  0  0  0  0  0  0  0  0  0  0
   43.1700   39.9510   29.0450 O   0  0  0  0  0  0  0  0  0  0  0  0
   42.1120   39.7930   29.9890 C   0  0  0  0  0  0  0  0  0  0  0  0
   43.4990   40.9000   31.9070 O   0  0  0  0  0  0  0  0  0  0  0  0
   43.2380   42.5580   28.9650 O   0  0  0  0  0  0  0  0  0  0  0  0
  1  2  2  0
  2  4  1  0
  2  3  1  0
  3  5  1  0
  3  6  1  0
  6  9  1  0
  8  7  1  0
  8  3  1  0
  8  6  1  0
 10  2  1  0
M  END
$$$$

     RDKit          3D

 15 15  0  0  0  0  0  0  0  0999 V2000
   38.4540   42.4580   30.6910 C   0  0  0  0  0  0  0  0  0  0  0  0
   42.0420   44.9670   29.4260 O   0  0  0  0  0  0  0  0  0  0  0  0
   39.2730   43.3750   31.7390 C   0  0  0  0  0  0  0  0  0  0  0  0
   40.3940   44.0550   31.3360 C   0  0  0  0  0  0  0  0  0  0  0  0
   42.7960   40.0820   30.9650 N   0  0  0  0  0  0  0  0  0  0  0  0
   42.7510   42.5400   29.0980 O   0  0  0  0  0  0  0  0  0  0  0  0
   39.2670   42.0200   29.5060 C   0  0  0  0  0  0  0  0  0  0  0  0
   40.9520   40.2530   29.3610 C   0  0  0  0  0  0  0  0  0  0  0  0
   41.5370   39.4890   30.5190 C   0  0  0  0  0  0  0  0  0  0  0  0
   41.4800   43.7060   29.8350 P   0  0  0  0  0  0  0  0  0  0  0  0
   44.0030   39.8470   30.1550 C   0  0  0  0  0  0  0  0  0  0  0  0
   41.6620   40.4340   28.2590 O   0  0  0  0  0  0  0  0  0  0  0  0
   40.2640   43.0070   28.8840 C   0  0  0  0  0  0  0  0  0  0  0  0
   39.7950   44.3160   28.5930 O   0  0  0  0  0  0  0  0  0  0  0  0
   39.6420   40.6540   29.4270 N   0  0  0  0  0  0  0  0  0  0  0  0
  1  3  1  0
  2 10  1  0
  4  3  1  0
  7 15  1  0
  7  1  1  0
  8 15  1  0
  8  9  1  0
  9  5  1  0
 10  6  2  0
 10  4  1  0
 11  5  1  0
 12  8  2  0
 13 14  1  0
 13  7  1  0
 13 10  1  0
M  END
$$$$

     RDKit          3D

  7  7  0  0  0  0  0  0  0  0999 V2000
   41.2590   40.7430   31.8460 C   0  0  0  0  0  0  0  0  0  0  0  0
   45.5080   41.1540   30.2170 O   0  0  0  0  0  0  0  0  0  0  0  0
   43.3300   39.8980   30.2250 C   0  0  0  0  0  0  0  0  0  0  0  0
   42.0740   40.6770   30.5370 C   0  0  0  0  0  0  0  0  0  0  0  0
   40.9330   39.8290   30.7580 N   0  0  0  0  0  0  0  0  0  0  0  0
   44.7030   39.8210   28.4130 O   0  0  0  0  0  0  0  0  0  0  0  0
   44.5990   40.3800   29.6750 C   0  0  0  0  0  0  0  0  0  0  0  0
  4  3  1  0
  4  5  1  0
  4  1  1  0
  5  1  1  0
  6  7  2  0
  7  2  1  0
  7  3  1  0
M  END
$$$$
