
     RDKit          3D

 12 11  0  0  0  0  0  0  0  0999 V2000
   39.1510   35.8010   22.1580 O   0  0  0  0  0  0  0  0  0  0  0  0
   38.2110   33.7650   22.7070 O   0  0  0  0  0  0  0  0  0  0  0  0
   42.5710   36.9740   25.1880 O   0  0  0  0  0  0  0  0  0  0  0  0
   39.0270   34.5870   25.2490 O   0  0  0  0  0  0  0  0  0  0  0  0
   40.5990   36.1480   24.3520 C   0  0  0  0  0  0  0  0  0  0  0  0
   44.0720   38.7540   24.6190 C   0  0  0  0  0  0  0  0  0  0  0  0
   43.9350   37.2690   24.9510 C   0  0  0  0  0  0  0  0  0  0  0  0
   39.4070   34.5610   22.7920 C   0  0  0  0  0  0  0  0  0  0  0  0
   42.5320   34.6260   24.9990 N   0  0  0  0  0  0  0  0  0  0  0  0
   40.5780   33.8720   22.1110 C   0  0  0  0  0  0  0  0  0  0  0  0
   42.1050   35.8900   24.3950 C   0  0  0  0  0  0  0  0  0  0  0  0
   39.6140   34.9970   24.2390 C   0  0  0  0  0  0  0  0  0  0  0  0
  1  8  1  0
  2  8  1  0
  5 11  1  0
  6  7  1  0
  7  3  1  0
  8 12  1  0
 10  8  1  0
 11  9  1  0
 11  3  1  0
 12  5  1  0
 12  4  2  0
M  END
$$$$

     RDKit          3D

  6  5  0  0  0  0  0  0  0  0999 V2000
   40.0960   34.9320   23.4170 C   0  0  0  0  0  0  0  0  0  0  0  0
   40.0370   36.4330   23.4000 C   0  0  0  0  0  0  0  0  0  0  0  0
   38.6590   34.5300   23.3850 C   0  0  0  0  0  0  0  0  0  0  0  0
   40.2380   34.7730   25.8930 O   0  0  0  0  0  0  0  0  0  0  0  0
   40.8750   34.4790   22.1970 C   0  0  0  0  0  0  0  0  0  0  0  0
   40.7870   34.2850   24.6440 C   0  0  0  0  0  0  0  0  0  0  0  0
  1  6  1  0
  2  1  1  0
  3  1  1  0
  5  1  1  0
  6  4  1  0
M  END
$$$$

     RDKit          3D

  7  6  0  0  0  0  0  0  0  0999 V2000
   38.5520   34.9350   22.6600 O   0  0  0  0  0  0  0  0  0  0  0  0
   40.6480   34.9710   21.8490 N   0  0  0  0  0  0  0  0  0  0  0  0
   41.2470   34.0070   24.5810 C   0  0  0  0  0  0  0  0  0  0  0  0
   41.1830   36.4780   24.2990 C   0  0  0  0  0  0  0  0  0  0  0  0
   39.7750   35.0260   22.8670 C   0  0  0  0  0  0  0  0  0  0  0  0
   39.1990   35.2500   25.3370 C   0  0  0  0  0  0  0  0  0  0  0  0
   40.3390   35.1860   24.2810 C   0  0  0  0  0  0  0  0  0  0  0  0
  1  5  2  0
  2  5  1  0
  5  7  1  0
  7  4  1  0
  7  3  1  0
  7  6  1  0
M  END
$$$$

     RDKit          3D

  9  9  0  0  0  0  0  0  0  0999 V2000
   42.7290   37.5630   24.8850 O   0  0  0  0  0  0  0  0  0  0  0  0
   39.9600   34.4930   24.0790 N   0  0  0  0  0  0  0  0  0  0  0  0
   39.5750   35.5260   25.0270 C   0  0  0  0  0  0  0  0  0  0  0  0
   41.6040   36.7750   24.4530 C   0  0  0  0  0  0  0  0  0  0  0  0
   40.8190   34.9950   22.9880 C   0  0  0  0  0  0  0  0  0  0  0  0
   41.0280   33.8010   22.2630 O   0  0  0  0  0  0  0  0  0  0  0  0
   40.9110   36.0500   25.6040 C   0  0  0  0  0  0  0  0  0  0  0  0
   43.0140   35.9790   22.6150 O   0  0  0  0  0  0  0  0  0  0  0  0
   42.0800   35.5840   23.6030 C   0  0  0  0  0  0  0  0  0  0  0  0
  2  3  1  0
  3  7  1  0
  4  1  1  0
  4  7  1  0
  5  6  1  0
  5  9  1  0
  5  2  1  0
  9  8  1  0
  9  4  1  0
M  END
$$$$

     RDKit          3D

 10 10  0  0  0  0  0  0  0  0999 V2000
   42.3820   34.1520   24.1680 C   0  0  0  0  0  0  0  0  0  0  0  0
   40.9600   35.5620   22.6650 C   0  0  0  0  0  0  0  0  0  0  0  0
   43.5130   34.8370   23.6880 O   0  0  0  0  0  0  0  0  0  0  0  0
   41.7260   34.2780   22.8880 C   0  0  0  0  0  0  0  0  0  0  0  0
   41.9640   36.4760   21.9020 C   0  0  0  0  0  0  0  0  0  0  0  0
   40.0320   34.8670   24.6280 C   0  0  0  0  0  0  0  0  0  0  0  0
   39.1350   36.6120   23.3020 O   0  0  0  0  0  0  0  0  0  0  0  0
   40.3430   36.0750   23.7460 C   0  0  0  0  0  0  0  0  0  0  0  0
   39.1950   35.1460   25.6680 O   0  0  0  0  0  0  0  0  0  0  0  0
   41.2680   34.3610   25.1650 N   0  0  0  0  0  0  0  0  0  0  0  0
  1  3  1  0
  1 10  1  0
  2  5  1  0
  2  4  1  0
  2  8  1  0
  4  1  1  0
  6 10  1  0
  6  9  1  0
  8  7  1  0
  8  6  1  0
M  END
$$$$

     RDKit          3D

 11 11  0  0  0  0  0  0  0  0999 V2000
   42.6920   36.0290   23.5900 C   0  0  0  0  0  0  0  0  0  0  0  0
   39.2300   33.5820   21.6970 O   0  0  0  0  0  0  0  0  0  0  0  0
   41.9200   36.8460   24.6420 C   0  0  0  0  0  0  0  0  0  0  0  0
   43.3090   34.7370   23.4140 O   0  0  0  0  0  0  0  0  0  0  0  0
   42.6320   36.7360   25.8320 O   0  0  0  0  0  0  0  0  0  0  0  0
   40.5170   36.2550   24.7580 C   0  0  0  0  0  0  0  0  0  0  0  0
   41.7480   35.8800   22.4950 C   0  0  0  0  0  0  0  0  0  0  0  0
   40.9850   34.6790   22.8870 C   0  0  0  0  0  0  0  0  0  0  0  0
   38.9760   34.4150   24.2750 O   0  0  0  0  0  0  0  0  0  0  0  0
   40.3630   34.8090   24.2690 C   0  0  0  0  0  0  0  0  0  0  0  0
   40.1040   34.6200   21.7270 C   0  0  0  0  0  0  0  0  0  0  0  0
  1  4  1  0
  1  3  1  0
  2 11  1  0
  3  6  1  0
  3  5  1  0
  7  8  1  0
  7  1  1  0
  8 11  1  0
  8 10  1  0
 10  9  1  0
 10  6  1  0
M  END
$$$$

     RDKit          3D

 20 23  0  0  0  0  0  0  0  0999 V2000
   37.4610   33.5440   23.0110 C   0  0  0  0  0  0  0  0  0  0  0  0
   39.5390   34.8750   24.7580 C   0  0  0  0  0  0  0  0  0  0  0  0
   36.2790   33.1670   21.9370 S   0  0  0  0  0  0  0  0  0  0  0  0
   36.4110   34.2570   20.6920 C   0  0  0  0  0  0  0  0  0  0  0  0
   41.2570   36.9430   22.7540 O   0  0  0  0  0  0  0  0  0  0  0  0
   43.7260   34.7440   23.6210 C   0  0  0  0  0  0  0  0  0  0  0  0
   42.8280   34.3360   24.7850 C   0  0  0  0  0  0  0  0  0  0  0  0
   43.1500   35.8160   22.7670 O   0  0  0  0  0  0  0  0  0  0  0  0
   38.8680   34.7460   22.3760 C   0  0  0  0  0  0  0  0  0  0  0  0
   38.1970   35.9280   21.7270 C   0  0  0  0  0  0  0  0  0  0  0  0
   40.9510   33.4950   23.4170 O   0  0  0  0  0  0  0  0  0  0  0  0
   40.4380   34.2150   27.0070 N   0  0  0  0  0  0  0  0  0  0  0  0
   39.2180   34.3360   26.1400 C   0  0  0  0  0  0  0  0  0  0  0  0
   38.2090   34.4490   23.8600 N   0  0  0  0  0  0  0  0  0  0  0  0
   41.8540   35.9370   22.4180 C   0  0  0  0  0  0  0  0  0  0  0  0
   35.5460   33.4800   19.3560 Cl  0  0  0  0  0  0  0  0  0  0  0  0
   40.2560   34.0950   22.2920 C   0  0  0  0  0  0  0  0  0  0  0  0
   41.1750   34.4820   24.5290 C   0  0  0  0  0  0  0  0  0  0  0  0
   41.2620   34.8900   21.4430 C   0  0  0  0  0  0  0  0  0  0  0  0
   37.0350   35.6630   20.7170 C   0  0  0  0  0  0  0  0  0  0  0  0
  1  3  1  0
  1 14  1  0
  2 13  1  0
  4 16  1  0
  4 20  1  0
  4  3  1  0
  6  7  1  0
  8  6  1  0
  9 10  1  0
  9  1  1  0
  9 14  1  0
 11 18  1  0
 13 12  1  0
 14  2  1  0
 15  5  2  0
 15  8  1  0
 17  9  1  0
 17 11  1  0
 18  2  1  0
 18  7  1  0
 19 17  1  0
 19 15  1  0
 20 10  2  0
M  END
$$$$

     RDKit          3D

 23 26  0  0  0  0  0  0  0  0999 V2000
   39.3940   35.4580   25.7550 C   0  0  0  0  0  0  0  0  0  0  0  0
   39.9290   34.1610   22.6870 C   0  0  0  0  0  0  0  0  0  0  0  0
   37.7200   33.3520   23.3440 O   0  0  0  0  0  0  0  0  0  0  0  0
   38.0480   34.8960   21.6040 C   0  0  0  0  0  0  0  0  0  0  0  0
   43.8470   35.5120   25.7020 C   0  0  0  0  0  0  0  0  0  0  0  0
   36.6830   35.3870   21.3130 C   0  0  0  0  0  0  0  0  0  0  0  0
   40.3350   36.3660   19.3110 O   0  0  0  0  0  0  0  0  0  0  0  0
   37.4600   37.4540   19.5620 C   0  0  0  0  0  0  0  0  0  0  0  0
   38.5450   34.0800   22.7010 C   0  0  0  0  0  0  0  0  0  0  0  0
   39.6820   33.5760   27.4250 C   0  0  0  0  0  0  0  0  0  0  0  0
   39.2200   35.3820   20.9810 C   0  0  0  0  0  0  0  0  0  0  0  0
   36.7470   36.1720   19.9080 C   0  0  0  0  0  0  0  0  0  0  0  0
   40.3500   34.9080   21.5900 N   0  0  0  0  0  0  0  0  0  0  0  0
   42.3470   35.2700   25.1350 C   0  0  0  0  0  0  0  0  0  0  0  0
   42.3070   34.5350   23.7410 C   0  0  0  0  0  0  0  0  0  0  0  0
   38.0190   36.3430   19.2000 N   0  0  0  0  0  0  0  0  0  0  0  0
   35.3760   36.0900   19.2230 C   0  0  0  0  0  0  0  0  0  0  0  0
   41.6940   36.7070   24.9750 C   0  0  0  0  0  0  0  0  0  0  0  0
   41.6610   34.3570   26.0850 N   0  0  0  0  0  0  0  0  0  0  0  0
   39.2020   36.0650   19.7260 C   0  0  0  0  0  0  0  0  0  0  0  0
   40.2630   34.5150   26.3920 N   0  0  0  0  0  0  0  0  0  0  0  0
   40.1790   36.6020   24.9320 C   0  0  0  0  0  0  0  0  0  0  0  0
   41.0000   33.7020   23.4960 C   0  0  0  0  0  0  0  0  0  0  0  0
  1 21  1  0
  2  9  1  0
  2 23  1  0
  4  6  1  0
  4  9  1  0
  7 20  2  0
  8 12  1  0
  9  3  2  0
 11 13  2  0
 11  4  1  0
 12 17  1  0
 12  6  1  0
 13  2  1  0
 14  5  1  0
 14 19  1  0
 15 14  1  0
 16  8  1  0
 16 20  1  0
 16 12  1  0
 18 14  1  0
 19 21  1  0
 20 11  1  0
 21 10  1  0
 22 18  1  0
 22  1  1  0
 23 15  1  0
M  END
$$$$

     RDKit          3D

  9  8  0  0  0  0  0  0  0  0999 V2000
   41.1080   35.7170   25.1310 C   0  0  0  0  0  0  0  0  0  0  0  0
   40.5660   34.1450   21.9440 O   0  0  0  0  0  0  0  0  0  0  0  0
   40.3950   34.5280   23.1260 C   0  0  0  0  0  0  0  0  0  0  0  0
   39.3550   34.1630   23.7250 O   0  0  0  0  0  0  0  0  0  0  0  0
   40.4330   36.7230   25.1800 O   0  0  0  0  0  0  0  0  0  0  0  0
   41.3490   35.3940   23.6190 C   0  0  0  0  0  0  0  0  0  0  0  0
   40.4010   34.7760   26.1610 O   0  0  0  0  0  0  0  0  0  0  0  0
   41.4840   36.3040   22.4630 O   0  0  0  0  0  0  0  0  0  0  0  0
   42.4420   35.6450   25.5050 O   0  0  0  0  0  0  0  0  0  0  0  0
  1  5  1  0
  1  9  1  0
  1  7  1  0
  2  3  2  0
  3  6  1  0
  3  4  1  0
  6  8  1  0
  6  1  1  0
M  END
$$$$

     RDKit          3D

 12 11  0  0  0  0  0  0  0  0999 V2000
   38.8360   35.4550   24.0890 C   0  0  0  0  0  0  0  0  0  0  0  0
   40.7910   35.1670   25.9460 C   0  0  0  0  0  0  0  0  0  0  0  0
   38.7640   35.1640   22.5640 C   0  0  0  0  0  0  0  0  0  0  0  0
   40.5280   34.4930   20.8860 O   0  0  0  0  0  0  0  0  0  0  0  0
   37.8940   34.0850   22.1470 N   0  0  0  0  0  0  0  0  0  0  0  0
   40.1780   35.2820   21.8300 C   0  0  0  0  0  0  0  0  0  0  0  0
   40.0110   34.7940   24.7330 C   0  0  0  0  0  0  0  0  0  0  0  0
   40.9380   36.1930   22.2350 O   0  0  0  0  0  0  0  0  0  0  0  0
   40.7570   38.0140   25.6570 O   0  0  0  0  0  0  0  0  0  0  0  0
   41.4310   36.6130   25.7720 N   0  0  0  0  0  0  0  0  0  0  0  0
   42.9230   36.7240   25.9760 C   0  0  0  0  0  0  0  0  0  0  0  0
   37.5390   34.0870   20.6980 C   0  0  0  0  0  0  0  0  0  0  0  0
  1  7  1  0
  3  1  1  0
  4  6  2  0
  5  3  1  0
  6  8  1  0
  6  3  1  0
  7  2  1  0
  9 10  1  0
 10  2  1  0
 10 11  1  0
 12  5  1  0
M  END
$$$$

     RDKit          3D

  6  5  0  0  0  0  0  0  0  0999 V2000
   41.9870   33.8840   24.4980 N   0  0  0  0  0  0  0  0  0  0  0  0
   40.5490   35.1100   22.4220 C   0  0  0  0  0  0  0  0  0  0  0  0
   42.0280   35.9670   25.6710 C   0  0  0  0  0  0  0  0  0  0  0  0
   40.3990   35.5380   23.8580 C   0  0  0  0  0  0  0  0  0  0  0  0
   39.1930   34.8650   24.5360 C   0  0  0  0  0  0  0  0  0  0  0  0
   41.4900   35.0290   24.6920 C   0  0  0  0  0  0  0  0  0  0  0  0
  1  6  2  0
  2  4  1  0
  4  5  1  0
  4  6  1  0
  6  3  1  0
M  END
$$$$

     RDKit          3D

 16 15  0  0  0  0  0  0  0  0999 V2000
   42.0870   35.0590   24.4600 C   0  0  0  0  0  0  0  0  0  0  0  0
   39.3190   34.6680   23.7950 O   0  0  0  0  0  0  0  0  0  0  0  0
   40.3230   33.9360   26.0990 N   0  0  0  0  0  0  0  0  0  0  0  0
   44.9300   35.0700   23.4810 Br  0  0  0  0  0  0  0  0  0  0  0  0
   41.0510   35.7500   24.9330 C   0  0  0  0  0  0  0  0  0  0  0  0
   37.0000   33.9800   21.4910 C   0  0  0  0  0  0  0  0  0  0  0  0
   41.3360   36.9020   25.5560 O   0  0  0  0  0  0  0  0  0  0  0  0
   43.5120   35.6710   24.6170 C   0  0  0  0  0  0  0  0  0  0  0  0
   42.0590   33.9830   23.8510 O   0  0  0  0  0  0  0  0  0  0  0  0
   43.9460   35.5940   26.0860 C   0  0  0  0  0  0  0  0  0  0  0  0
   36.9640   34.3950   22.9670 C   0  0  0  0  0  0  0  0  0  0  0  0
   44.0460   36.6290   26.7680 O   0  0  0  0  0  0  0  0  0  0  0  0
   44.1400   34.4160   26.5040 O   0  0  0  0  0  0  0  0  0  0  0  0
   39.7490   35.0320   25.1460 C   0  0  0  0  0  0  0  0  0  0  0  0
   35.7930   33.2260   20.9170 C   0  0  0  0  0  0  0  0  0  0  0  0
   38.1120   35.3250   23.3690 C   0  0  0  0  0  0  0  0  0  0  0  0
  1  8  1  0
  1  5  1  0
  2 14  1  0
  5 14  1  0
  5  7  1  0
  6 11  1  0
  8  4  1  0
  8 10  1  0
  9  1  2  0
 10 13  2  0
 10 12  1  0
 11 16  1  0
 14  3  1  0
 15  6  1  0
 16  2  1  0
M  END
$$$$

     RDKit          3D

  6  5  0  0  0  0  0  0  0  0999 V2000
   40.2530   35.1190   21.5860 O   0  0  0  0  0  0  0  0  0  0  0  0
   39.3570   35.2250   25.4970 N   0  0  0  0  0  0  0  0  0  0  0  0
   39.0670   33.5950   22.9580 O   0  0  0  0  0  0  0  0  0  0  0  0
   39.9090   35.6880   24.0780 C   0  0  0  0  0  0  0  0  0  0  0  0
   41.5300   33.8260   23.2790 O   0  0  0  0  0  0  0  0  0  0  0  0
   40.2280   34.4800   22.9310 S   0  0  0  0  0  0  0  0  0  0  0  0
  1  6  1  0
  4  2  1  0
  6  3  1  0
  6  5  1  0
  6  4  1  0
M  END
$$$$

     RDKit          3D

 11 10  0  0  0  0  0  0  0  0999 V2000
   43.3570   35.3890   25.2650 O   0  0  0  0  0  0  0  0  0  0  0  0
   41.5800   37.1770   24.4000 C   0  0  0  0  0  0  0  0  0  0  0  0
   39.2380   35.0480   23.6300 C   0  0  0  0  0  0  0  0  0  0  0  0
   43.1050   35.5410   24.0140 C   0  0  0  0  0  0  0  0  0  0  0  0
   41.1870   36.1600   22.2880 O   0  0  0  0  0  0  0  0  0  0  0  0
   40.6750   34.7360   23.9930 C   0  0  0  0  0  0  0  0  0  0  0  0
   41.6310   35.9040   23.6450 C   0  0  0  0  0  0  0  0  0  0  0  0
   44.0630   35.4940   23.2070 O   0  0  0  0  0  0  0  0  0  0  0  0
   36.9480   33.5850   22.7270 S   0  0  0  0  0  0  0  0  0  0  0  0
   40.7510   34.2740   25.3790 N   0  0  0  0  0  0  0  0  0  0  0  0
   38.7230   34.0550   22.5690 C   0  0  0  0  0  0  0  0  0  0  0  0
  3  6  1  0
  4  1  1  0
  5  7  1  0
  6 10  1  0
  7  6  1  0
  7  4  1  0
  7  2  1  0
  8  4  2  0
 11  9  1  0
 11  3  1  0
M  END
$$$$

     RDKit          3D

  5  4  0  0  0  0  0  0  0  0999 V2000
   40.4440   33.9880   22.4810 O   0  0  0  0  0  0  0  0  0  0  0  0
   39.8240   35.1250   23.1260 C   0  0  0  0  0  0  0  0  0  0  0  0
   38.3330   34.8620   23.2770 C   0  0  0  0  0  0  0  0  0  0  0  0
   40.4090   34.0660   25.3370 N   0  0  0  0  0  0  0  0  0  0  0  0
   40.4180   35.3100   24.5230 C   0  0  0  0  0  0  0  0  0  0  0  0
  1  2  1  0
  2  3  1  0
  2  5  1  0
  5  4  1  0
M  END
$$$$

     RDKit          3D

  5  4  0  0  0  0  0  0  0  0999 V2000
   39.6400   36.1790   24.2790 O   0  0  0  0  0  0  0  0  0  0  0  0
   39.9930   33.4670   22.2630 N   0  0  0  0  0  0  0  0  0  0  0  0
   39.6110   34.0070   23.3230 C   0  0  0  0  0  0  0  0  0  0  0  0
   40.2990   35.2710   23.7680 C   0  0  0  0  0  0  0  0  0  0  0  0
   41.6360   35.3170   23.6250 N   0  0  0  0  0  0  0  0  0  0  0  0
  2  3  2  0
  3  4  1  0
  4  1  2  0
  5  4  1  0
M  END
$$$$

     RDKit          3D

 11 10  0  0  0  0  0  0  0  0999 V2000
   43.2880   34.7800   24.8770 C   0  0  0  0  0  0  0  0  0  0  0  0
   40.9100   34.7670   23.9310 C   0  0  0  0  0  0  0  0  0  0  0  0
   42.3210   34.8500   23.7690 N   0  0  0  0  0  0  0  0  0  0  0  0
   40.8690   33.7210   24.3040 O   0  0  0  0  0  0  0  0  0  0  0  0
   39.9980   35.6300   22.9950 C   0  0  0  0  0  0  0  0  0  0  0  0
   41.8250   37.2420   24.9390 O   0  0  0  0  0  0  0  0  0  0  0  0
   41.9370   36.5050   25.7980 N   0  0  0  0  0  0  0  0  0  0  0  0
   38.9750   34.7210   22.3950 C   0  0  0  0  0  0  0  0  0  0  0  0
   42.6990   35.4530   26.1160 C   0  0  0  0  0  0  0  0  0  0  0  0
   40.8510   36.2300   21.9250 O   0  0  0  0  0  0  0  0  0  0  0  0
   38.2820   34.1300   23.3270 O   0  0  0  0  0  0  0  0  0  0  0  0
  1  9  1  0
  2  4  2  0
  3  2  1  0
  3  1  1  0
  5 10  1  0
  5  2  1  0
  6  7  2  0
  7  9  1  0
  8  5  1  0
  8 11  1  0
M  END
$$$$

     RDKit          3D

 12 12  0  0  0  0  0  0  0  0999 V2000
   41.0940   36.2310   25.2550 C   0  0  0  0  0  0  0  0  0  0  0  0
   40.2750   33.8120   22.3670 O   0  0  0  0  0  0  0  0  0  0  0  0
   40.0620   36.4650   21.4240 O   0  0  0  0  0  0  0  0  0  0  0  0
   43.0860   37.3860   23.9370 O   0  0  0  0  0  0  0  0  0  0  0  0
   40.5860   35.0900   23.0980 C   0  0  0  0  0  0  0  0  0  0  0  0
   40.9700   36.2680   22.4920 C   0  0  0  0  0  0  0  0  0  0  0  0
   41.7400   35.2730   26.2690 N   0  0  0  0  0  0  0  0  0  0  0  0
   41.1400   33.9100   26.6240 C   0  0  0  0  0  0  0  0  0  0  0  0
   39.6630   33.6460   26.6320 N   0  0  0  0  0  0  0  0  0  0  0  0
   41.1720   37.6730   23.0540 C   0  0  0  0  0  0  0  0  0  0  0  0
   41.8040   37.4850   24.4760 C   0  0  0  0  0  0  0  0  0  0  0  0
   39.9530   35.4060   24.4490 C   0  0  0  0  0  0  0  0  0  0  0  0
  1  7  2  3
  5  2  1  0
  5 12  1  0
  6  3  1  0
  6 10  1  0
  6  5  1  0
  7  8  1  0
  8  9  1  0
 10 11  1  0
 11  4  1  0
 11  1  1  0
 12  1  1  0
M  END
$$$$

     RDKit          3D

  9  9  0  0  0  0  0  0  0  0999 V2000
   43.2720   38.1060   24.3390 N   0  0  0  0  0  0  0  0  0  0  0  0
   41.9240   35.4410   24.2500 C   0  0  0  0  0  0  0  0  0  0  0  0
   40.6220   36.1140   23.9120 C   0  0  0  0  0  0  0  0  0  0  0  0
   42.0520   34.8170   25.5660 C   0  0  0  0  0  0  0  0  0  0  0  0
   43.0720   35.8210   23.3750 C   0  0  0  0  0  0  0  0  0  0  0  0
   40.8550   34.0100   25.8570 N   0  0  0  0  0  0  0  0  0  0  0  0
   39.9750   36.1680   25.2780 C   0  0  0  0  0  0  0  0  0  0  0  0
   39.5850   34.7420   25.5890 C   0  0  0  0  0  0  0  0  0  0  0  0
   43.0830   37.3530   23.0690 C   0  0  0  0  0  0  0  0  0  0  0  0
  2  5  1  0
  2  4  1  0
  3  2  1  0
  3  7  1  0
  4  6  1  0
  7  8  1  0
  8  6  1  0
  9  5  1  0
  9  1  1  0
M  END
$$$$

     RDKit          3D

  4  3  0  0  0  0  0  0  0  0999 V2000
   40.8500   34.4070   25.0530 N   0  0  0  0  0  0  0  0  0  0  0  0
   39.5090   34.8130   25.0710 O   0  0  0  0  0  0  0  0  0  0  0  0
   41.0490   36.5880   24.2900 C   0  0  0  0  0  0  0  0  0  0  0  0
   41.7050   35.2630   24.2230 C   0  0  0  0  0  0  0  0  0  0  0  0
  1  2  1  0
  4  3  1  0
  4  1  1  0
M  END
$$$$
