
     RDKit          3D

 16 17  0  0  0  0  0  0  0  0999 V2000
   42.3730   38.8970   30.3210 C   0  0  0  0  0  0  0  0  0  0  0  0
   36.2640   40.2230   24.2750 C   0  0  0  0  0  0  0  0  0  0  0  0
   39.0540   39.6010   27.2350 C   0  0  0  0  0  0  0  0  0  0  0  0
   40.8420   39.9020   31.5030 C   0  0  0  0  0  0  0  0  0  0  0  0
   38.0310   41.3380   28.6390 C   0  0  0  0  0  0  0  0  0  0  0  0
   37.2310   40.8200   26.4140 C   0  0  0  0  0  0  0  0  0  0  0  0
   39.8810   40.7310   30.3500 C   0  0  0  0  0  0  0  0  0  0  0  0
   37.1530   41.6260   27.5530 C   0  0  0  0  0  0  0  0  0  0  0  0
   35.2840   40.5800   23.4170 O   0  0  0  0  0  0  0  0  0  0  0  0
   40.3110   38.7940   29.5550 N   0  0  0  0  0  0  0  0  0  0  0  0
   39.8330   39.8960   29.5070 C   0  0  0  0  0  0  0  0  0  0  0  0
   38.8820   40.3140   28.4410 C   0  0  0  0  0  0  0  0  0  0  0  0
   38.1370   39.8360   26.1710 C   0  0  0  0  0  0  0  0  0  0  0  0
   36.2610   40.9680   25.3310 N   0  0  0  0  0  0  0  0  0  0  0  0
   37.0450   39.3010   23.9570 O   0  0  0  0  0  0  0  0  0  0  0  0
   41.0440   38.7290   30.6900 C   0  0  0  0  0  0  0  0  0  0  0  0
  2 14  1  0
  3 12  1  0
  6  8  2  0
  7  4  2  0
  8  5  1  0
  9  2  2  0
 10 16  1  0
 11 10  2  0
 11  7  1  0
 12  5  2  0
 12 11  1  0
 13  6  1  0
 13  3  2  0
 14  6  1  0
 15  2  1  0
 16  1  1  0
 16  4  1  0
M  END
$$$$

     RDKit          3D

 10 10  0  0  0  0  0  0  0  0999 V2000
   40.6260   42.0540   29.5010 C   0  0  0  0  0  0  0  0  0  0  0  0
   40.9020   39.7610   28.4230 C   0  0  0  0  0  0  0  0  0  0  0  0
   41.2490   42.9370   28.4520 C   0  0  0  0  0  0  0  0  0  0  0  0
   41.5830   40.1420   30.7190 C   0  0  0  0  0  0  0  0  0  0  0  0
   42.6520   43.3540   29.0970 O   0  0  0  0  0  0  0  0  0  0  0  0
   41.9620   38.8410   30.2690 N   0  0  0  0  0  0  0  0  0  0  0  0
   40.4510   42.5110   30.7630 N   0  0  0  0  0  0  0  0  0  0  0  0
   40.9190   43.8250   27.3720 C   0  0  0  0  0  0  0  0  0  0  0  0
   41.3970   40.7890   29.4040 N   0  0  0  0  0  0  0  0  0  0  0  0
   41.6630   38.5190   28.8680 C   0  0  0  0  0  0  0  0  0  0  0  0
  1  7  1  0
  2 10  1  0
  2  9  1  0
  3  8  1  0
  3  5  1  0
  3  1  1  0
  6  4  1  0
  9  1  1  0
  9  4  1  0
 10  6  1  0
M  END
$$$$

     RDKit          3D

  9  8  0  0  0  0  0  0  0  0999 V2000
   40.5300   39.5390   29.6200 C   0  0  0  0  0  0  0  0  0  0  0  0
   41.0150   42.1400   32.6760 N   0  0  0  0  0  0  0  0  0  0  0  0
   39.7670   41.6830   30.6300 C   0  0  0  0  0  0  0  0  0  0  0  0
   41.8440   40.8220   28.1880 O   0  0  0  0  0  0  0  0  0  0  0  0
   42.2980   41.6970   30.9350 N   0  0  0  0  0  0  0  0  0  0  0  0
   41.9350   39.6850   29.0720 C   0  0  0  0  0  0  0  0  0  0  0  0
   41.0810   41.8350   31.3870 C   0  0  0  0  0  0  0  0  0  0  0  0
   39.8710   40.8280   29.4900 O   0  0  0  0  0  0  0  0  0  0  0  0
   43.2410   42.3410   31.7290 N   0  0  0  0  0  0  0  0  0  0  0  0
  3  7  1  0
  4  6  1  0
  5  7  1  0
  5  9  1  0
  6  1  1  0
  7  2  2  0
  8  1  1  0
  8  3  1  0
M  END
$$$$

     RDKit          3D

 13 13  0  0  0  0  0  0  0  0999 V2000
   42.9040   39.6220   31.5310 N   0  0  0  0  0  0  0  0  0  0  0  0
   43.2150   41.4250   29.5460 C   0  0  0  0  0  0  0  0  0  0  0  0
   41.7520   37.8130   30.6870 O   0  0  0  0  0  0  0  0  0  0  0  0
   43.8030   40.7670   30.9120 O   0  0  0  0  0  0  0  0  0  0  0  0
   40.8040   42.6260   29.6560 C   0  0  0  0  0  0  0  0  0  0  0  0
   42.6530   44.4070   30.4720 O   0  0  0  0  0  0  0  0  0  0  0  0
   42.2630   38.8750   30.6320 C   0  0  0  0  0  0  0  0  0  0  0  0
   40.9270   41.7110   30.7890 C   0  0  0  0  0  0  0  0  0  0  0  0
   41.7330   39.6850   29.6310 N   0  0  0  0  0  0  0  0  0  0  0  0
   40.4100   45.1140   29.5140 O   0  0  0  0  0  0  0  0  0  0  0  0
   42.0210   40.8830   30.0630 C   0  0  0  0  0  0  0  0  0  0  0  0
   41.6590   43.5270   27.9240 O   0  0  0  0  0  0  0  0  0  0  0  0
   41.3530   43.8920   29.2430 P   0  0  0  0  0  0  0  0  0  0  0  0
  2 11  1  0
  2  4  1  0
  4  1  1  0
  5  8  1  0
  7  3  2  0
  7  1  1  0
  9 11  1  0
  9  7  1  0
 11  8  1  0
 12 13  2  0
 13 10  1  0
 13  5  1  0
 13  6  1  0
M  END
$$$$

     RDKit          3D

 25 25  0  0  0  0  0  0  0  0999 V2000
   47.4420   39.8370   30.6640 C   0  0  0  0  0  0  0  0  0  0  0  0
   38.7710   39.0490   26.6100 F   0  0  0  0  0  0  0  0  0  0  0  0
   34.4340   40.8430   26.2340 C   0  0  0  0  0  0  0  0  0  0  0  0
   36.9290   42.4650   28.6620 C   0  0  0  0  0  0  0  0  0  0  0  0
   33.4320   41.8120   26.7350 N   0  0  0  0  0  0  0  0  0  0  0  0
   40.5050   40.8190   30.2080 C   0  0  0  0  0  0  0  0  0  0  0  0
   33.9810   39.4880   26.4190 O   0  0  0  0  0  0  0  0  0  0  0  0
   43.3900   39.4070   30.2650 C   0  0  0  0  0  0  0  0  0  0  0  0
   42.7620   39.5790   31.5600 N   0  0  0  0  0  0  0  0  0  0  0  0
   35.8140   40.9570   26.8780 C   0  0  0  0  0  0  0  0  0  0  0  0
   41.7640   41.5550   29.9250 N   0  0  0  0  0  0  0  0  0  0  0  0
   36.8600   40.0650   26.5660 C   0  0  0  0  0  0  0  0  0  0  0  0
   44.2820   41.2680   28.6580 C   0  0  0  0  0  0  0  0  0  0  0  0
   44.4270   38.3190   30.5050 C   0  0  0  0  0  0  0  0  0  0  0  0
   45.1820   40.7580   30.9570 O   0  0  0  0  0  0  0  0  0  0  0  0
   47.0900   42.2390   30.6070 C   0  0  0  0  0  0  0  0  0  0  0  0
   38.1320   41.8770   28.9300 C   0  0  0  0  0  0  0  0  0  0  0  0
   42.9110   41.8140   30.6200 C   0  0  0  0  0  0  0  0  0  0  0  0
   46.4110   40.9190   30.3060 C   0  0  0  0  0  0  0  0  0  0  0  0
   38.0330   40.0230   27.1860 C   0  0  0  0  0  0  0  0  0  0  0  0
   43.1420   42.6640   31.4210 O   0  0  0  0  0  0  0  0  0  0  0  0
   38.6630   40.7080   28.3710 C   0  0  0  0  0  0  0  0  0  0  0  0
   35.9450   42.0140   27.8100 C   0  0  0  0  0  0  0  0  0  0  0  0
   40.0170   40.2190   28.8860 C   0  0  0  0  0  0  0  0  0  0  0  0
   44.0040   40.7770   30.0550 C   0  0  0  0  0  0  0  0  0  0  0  0
  2 20  1  0
  3  7  1  0
  3  5  1  0
  3 10  1  0
  4 17  1  0
  8 14  1  0
  8  9  1  0
 10 23  1  0
 11  6  1  0
 11 18  1  0
 12 10  2  0
 12 20  1  0
 18 21  2  0
 19 16  1  0
 19  1  1  0
 19 15  1  0
 20 22  2  0
 22 24  1  0
 22 17  1  0
 23  4  2  0
 24  6  1  0
 25 13  1  0
 25  8  1  0
 25 18  1  0
 25 15  1  0
M  END
$$$$

     RDKit          3D

  9 10  0  0  0  0  0  0  0  0999 V2000
   39.7370   40.6270   29.6940 C   0  0  0  0  0  0  0  0  0  0  0  0
   41.0390   41.8530   28.6660 C   0  0  0  0  0  0  0  0  0  0  0  0
   41.2640   40.7270   29.1960 C   0  0  0  0  0  0  0  0  0  0  0  0
   39.6390   41.7160   29.0280 C   0  0  0  0  0  0  0  0  0  0  0  0
   41.5330   38.5000   30.1970 C   0  0  0  0  0  0  0  0  0  0  0  0
   40.4340   38.5610   31.0290 C   0  0  0  0  0  0  0  0  0  0  0  0
   39.4920   39.6250   30.7030 C   0  0  0  0  0  0  0  0  0  0  0  0
   41.9660   39.5290   29.3650 C   0  0  0  0  0  0  0  0  0  0  0  0
   41.2720   42.8810   28.0150 O   0  0  0  0  0  0  0  0  0  0  0  0
  1  7  2  0
  2  4  1  0
  2  3  1  0
  3  8  1  0
  3  1  1  0
  4  1  1  0
  5  6  1  0
  7  6  1  0
  8  5  2  0
  9  2  2  0
M  END
$$$$

     RDKit          3D

 14 15  0  0  0  0  0  0  0  0999 V2000
   39.0220   42.5420   26.2650 C   0  0  0  0  0  0  0  0  0  0  0  0
   39.5010   43.1320   27.4550 C   0  0  0  0  0  0  0  0  0  0  0  0
   44.7030   41.2620   29.5340 S   0  0  0  0  0  0  0  0  0  0  0  0
   43.2360   39.6930   30.7900 N   0  0  0  0  0  0  0  0  0  0  0  0
   40.7280   38.6970   29.2140 C   0  0  0  0  0  0  0  0  0  0  0  0
   39.1020   41.1760   26.0570 C   0  0  0  0  0  0  0  0  0  0  0  0
   39.4990   40.3300   27.0800 C   0  0  0  0  0  0  0  0  0  0  0  0
   42.0170   40.8710   29.2530 C   0  0  0  0  0  0  0  0  0  0  0  0
   41.4600   38.1060   30.4520 C   0  0  0  0  0  0  0  0  0  0  0  0
   40.7810   40.2140   29.2210 C   0  0  0  0  0  0  0  0  0  0  0  0
   39.9440   40.9290   28.2600 C   0  0  0  0  0  0  0  0  0  0  0  0
   39.8630   42.3010   28.4850 C   0  0  0  0  0  0  0  0  0  0  0  0
   42.0110   39.1810   31.3660 C   0  0  0  0  0  0  0  0  0  0  0  0
   43.1180   40.6390   29.7310 C   0  0  0  0  0  0  0  0  0  0  0  0
  1  2  1  0
  2 12  2  0
  3 14  2  0
  4 13  1  0
  5 10  1  0
  5  9  1  0
  6  1  2  0
  6  7  1  0
  7 11  2  0
  8 14  1  0
  9 13  1  0
 10 11  1  0
 10  8  1  0
 11 12  1  0
 14  4  1  0
M  END
$$$$

     RDKit          3D

 13 12  0  0  0  0  0  0  0  0999 V2000
   38.8460   41.6500   28.1830 C   0  0  0  0  0  0  0  0  0  0  0  0
   40.1150   42.2810   28.5810 C   0  0  0  0  0  0  0  0  0  0  0  0
   39.4220   39.3070   25.4610 O   0  0  0  0  0  0  0  0  0  0  0  0
   42.2850   42.2160   29.0230 O   0  0  0  0  0  0  0  0  0  0  0  0
   38.6800   39.5660   26.7450 C   0  0  0  0  0  0  0  0  0  0  0  0
   41.8740   40.0490   29.0520 N   0  0  0  0  0  0  0  0  0  0  0  0
   40.0550   43.2190   29.5900 O   0  0  0  0  0  0  0  0  0  0  0  0
   39.8060   38.9510   29.0380 O   0  0  0  0  0  0  0  0  0  0  0  0
   40.5430   39.6920   28.4300 C   0  0  0  0  0  0  0  0  0  0  0  0
   41.8450   41.1490   29.8420 C   0  0  0  0  0  0  0  0  0  0  0  0
   40.2570   43.2530   27.1740 C   0  0  0  0  0  0  0  0  0  0  0  0
   40.4720   40.1260   27.0930 O   0  0  0  0  0  0  0  0  0  0  0  0
   39.2650   40.8680   26.8580 C   0  0  0  0  0  0  0  0  0  0  0  0
  1  2  1  0
  2 11  1  0
  2  7  1  0
  3  5  1  0
  4 10  1  0
  6 10  1  0
  9  8  2  0
  9  6  1  0
 12  9  1  0
 13  5  1  0
 13 12  1  0
 13  1  1  0
M  END
$$$$

     RDKit          3D

 13 12  0  0  0  0  0  0  0  0999 V2000
   39.6530   42.1180   27.0270 O   0  0  0  0  0  0  0  0  0  0  0  0
   40.0650   39.9210   31.6500 O   0  0  0  0  0  0  0  0  0  0  0  0
   40.5670   40.8030   30.7060 C   0  0  0  0  0  0  0  0  0  0  0  0
   39.3720   41.4620   30.0000 C   0  0  0  0  0  0  0  0  0  0  0  0
   41.7600   41.1770   28.5740 C   0  0  0  0  0  0  0  0  0  0  0  0
   43.1720   41.0710   28.4630 O   0  0  0  0  0  0  0  0  0  0  0  0
   39.3520   41.7190   28.4120 C   0  0  0  0  0  0  0  0  0  0  0  0
   40.5750   39.0530   29.1510 O   0  0  0  0  0  0  0  0  0  0  0  0
   41.4200   40.1080   29.6480 C   0  0  0  0  0  0  0  0  0  0  0  0
   43.9160   41.1560   27.2500 C   0  0  0  0  0  0  0  0  0  0  0  0
   40.2320   43.9510   29.0960 N   0  0  0  0  0  0  0  0  0  0  0  0
   42.5420   43.5110   28.0920 C   0  0  0  0  0  0  0  0  0  0  0  0
   41.2920   42.7420   28.5700 C   0  0  0  0  0  0  0  0  0  0  0  0
  1  7  2  0
  3  2  1  0
  4  3  1  0
  5  6  1  0
  5  9  1  0
  7  4  2  0
  9  8  1  0
  9  3  1  0
 10  6  1  0
 13 12  1  0
 13  5  1  0
 13 11  1  0
M  END
$$$$

     RDKit          3D

 16 16  0  0  0  0  0  0  0  0999 V2000
   42.2440   41.6580   34.5420 C   0  0  0  0  0  0  0  0  0  0  0  0
   41.9160   42.3750   33.2300 C   0  0  0  0  0  0  0  0  0  0  0  0
   41.7550   42.0190   35.6500 O   0  0  0  0  0  0  0  0  0  0  0  0
   42.3720   41.3170   30.7050 C   0  0  0  0  0  0  0  0  0  0  0  0
   40.9620   41.7200   30.7900 C   0  0  0  0  0  0  0  0  0  0  0  0
   41.0750   40.2030   30.9620 C   0  0  0  0  0  0  0  0  0  0  0  0
   40.2870   41.3230   27.1370 C   0  0  0  0  0  0  0  0  0  0  0  0
   41.0350   39.9610   32.8760 N   0  0  0  0  0  0  0  0  0  0  0  0
   40.9850   41.4880   32.6910 C   0  0  0  0  0  0  0  0  0  0  0  0
   39.1070   41.8930   26.9080 O   0  0  0  0  0  0  0  0  0  0  0  0
   40.9710   41.0210   26.0510 O   0  0  0  0  0  0  0  0  0  0  0  0
   42.9880   40.6890   34.8140 O   0  0  0  0  0  0  0  0  0  0  0  0
   41.0090   39.9160   28.5480 C   0  0  0  0  0  0  0  0  0  0  0  0
   42.0560   39.0950   29.1490 C   0  0  0  0  0  0  0  0  0  0  0  0
   40.6920   41.0660   28.4880 N   0  0  0  0  0  0  0  0  0  0  0  0
   41.5200   39.1260   30.4490 N   0  0  0  0  0  0  0  0  0  0  0  0
  1 12  2  0
  1  3  1  0
  2  1  1  0
  4  5  1  0
  4  6  1  0
  5  6  1  0
  5  9  1  0
  6 16  1  0
  7 15  1  0
  9  8  1  0
  9  2  1  0
 10  7  1  0
 11  7  2  0
 13 14  1  0
 14 16  1  0
 15 13  1  0
M  END
$$$$

     RDKit          3D

 13 13  0  0  0  0  0  0  0  0999 V2000
   40.2630   42.8650   33.4180 O   0  0  0  0  0  0  0  0  0  0  0  0
   40.1530   42.0470   32.2880 C   0  0  0  0  0  0  0  0  0  0  0  0
   41.1720   38.6660   29.3260 O   0  0  0  0  0  0  0  0  0  0  0  0
   39.5060   41.4300   28.2580 O   0  0  0  0  0  0  0  0  0  0  0  0
   41.9900   41.4900   30.5650 C   0  0  0  0  0  0  0  0  0  0  0  0
   41.4750   41.3410   32.0170 C   0  0  0  0  0  0  0  0  0  0  0  0
   42.3740   40.2400   30.1230 O   0  0  0  0  0  0  0  0  0  0  0  0
   38.9930   42.8070   28.0560 C   0  0  0  0  0  0  0  0  0  0  0  0
   40.3140   41.0620   29.3220 C   0  0  0  0  0  0  0  0  0  0  0  0
   42.2270   40.9620   34.3220 C   0  0  0  0  0  0  0  0  0  0  0  0
   41.0890   42.1820   29.7430 O   0  0  0  0  0  0  0  0  0  0  0  0
   41.2730   39.8370   29.4510 C   0  0  0  0  0  0  0  0  0  0  0  0
   42.5310   40.9960   32.9240 O   0  0  0  0  0  0  0  0  0  0  0  0
  2  1  1  0
  3 12  2  0
  5  6  1  0
  6  2  1  0
  6 13  1  0
  7  5  1  0
  8  4  1  0
  9  4  1  0
  9 12  1  0
  9 11  1  0
 11  5  1  0
 12  7  1  0
 13 10  1  0
M  END
$$$$

     RDKit          3D

  4  3  0  0  0  0  0  0  0  0999 V2000
   43.4770   40.7520   28.0380 C   0  0  0  0  0  0  0  0  0  0  0  0
   42.5390   40.9990   26.9660 C   0  0  0  0  0  0  0  0  0  0  0  0
   42.0950   40.7810   25.8940 O   0  0  0  0  0  0  0  0  0  0  0  0
   45.3570   39.8110   27.6360 I   0  0  0  0  0  0  0  0  0  0  0  0
  2  1  1  0
  3  2  2  0
  4  1  1  0
M  END
$$$$

     RDKit          3D

  4  3  0  0  0  0  0  0  0  0999 V2000
   42.3240   39.0920   29.3370 O   0  0  0  0  0  0  0  0  0  0  0  0
   41.3670   39.9680   31.3050 C   0  0  0  0  0  0  0  0  0  0  0  0
   41.1490   39.6380   29.8430 C   0  0  0  0  0  0  0  0  0  0  0  0
   41.0410   41.3390   31.5170 O   0  0  0  0  0  0  0  0  0  0  0  0
  1  3  1  0
  2  4  1  0
  3  2  1  0
M  END
$$$$

     RDKit          3D

  8  8  0  0  0  0  0  0  0  0999 V2000
   39.4750   42.8000   29.0030 C   0  0  0  0  0  0  0  0  0  0  0  0
   38.9200   41.5020   29.6660 C   0  0  0  0  0  0  0  0  0  0  0  0
   40.9870   42.7450   28.6790 C   0  0  0  0  0  0  0  0  0  0  0  0
   39.7580   39.3260   30.6530 N   0  0  0  0  0  0  0  0  0  0  0  0
   41.0670   41.5430   27.6600 C   0  0  0  0  0  0  0  0  0  0  0  0
   40.6550   39.2090   27.7390 O   0  0  0  0  0  0  0  0  0  0  0  0
   40.6420   40.2330   28.4000 C   0  0  0  0  0  0  0  0  0  0  0  0
   40.0470   40.4430   29.8230 C   0  0  0  0  0  0  0  0  0  0  0  0
  1  2  1  0
  2  8  1  0
  3  1  1  0
  5  7  1  0
  5  3  1  0
  6  7  2  0
  7  8  1  0
  8  4  1  0
M  END
$$$$

     RDKit          3D

  5  5  0  0  0  0  0  0  0  0999 V2000
   41.6760   40.0010   28.7560 N   0  0  0  0  0  0  0  0  0  0  0  0
   40.6720   39.7730   27.7110 C   0  0  0  0  0  0  0  0  0  0  0  0
   40.5240   41.9060   28.9260 C   0  0  0  0  0  0  0  0  0  0  0  0
   39.9160   41.1250   27.7990 C   0  0  0  0  0  0  0  0  0  0  0  0
   41.3560   40.9910   29.6830 N   0  0  0  0  0  0  0  0  0  0  0  0
  1  5  1  0
  2  4  1  0
  2  1  1  0
  3  5  1  0
  4  3  1  0
M  END
$$$$

     RDKit          3D

  9  9  0  0  0  0  0  0  0  0999 V2000
   40.0290   40.5740   29.6620 C   0  0  0  0  0  0  0  0  0  0  0  0
   42.3820   42.1200   30.5360 C   0  0  0  0  0  0  0  0  0  0  0  0
   42.1340   41.4110   27.9520 C   0  0  0  0  0  0  0  0  0  0  0  0
   39.6590   42.4390   28.2550 O   0  0  0  0  0  0  0  0  0  0  0  0
   40.1390   41.4270   28.7130 C   0  0  0  0  0  0  0  0  0  0  0  0
   42.0900   40.4380   31.2060 S   0  0  0  0  0  0  0  0  0  0  0  0
   41.1120   42.5280   29.7500 C   0  0  0  0  0  0  0  0  0  0  0  0
   41.9270   40.1000   28.5080 O   0  0  0  0  0  0  0  0  0  0  0  0
   41.4120   39.7630   29.5640 C   0  0  0  0  0  0  0  0  0  0  0  0
  2  6  1  0
  3  8  1  0
  5  4  1  0
  5  1  1  0
  5  7  1  0
  7  2  1  0
  9  8  1  0
  9  1  1  0
  9  6  1  0
M  END
$$$$

     RDKit          3D

 11 11  0  0  0  0  0  0  0  0999 V2000
   39.1950   40.8450   30.3800 C   0  0  0  0  0  0  0  0  0  0  0  0
   41.3640   44.0390   28.7390 C   0  0  0  0  0  0  0  0  0  0  0  0
   41.2880   37.9810   29.8410 N   0  0  0  0  0  0  0  0  0  0  0  0
   42.5570   44.7520   27.5210 Br  0  0  0  0  0  0  0  0  0  0  0  0
   40.9530   39.3140   29.9120 C   0  0  0  0  0  0  0  0  0  0  0  0
   43.4680   42.5260   28.9890 O   0  0  0  0  0  0  0  0  0  0  0  0
   39.6500   39.5420   30.2820 C   0  0  0  0  0  0  0  0  0  0  0  0
   41.8410   40.3830   29.7410 C   0  0  0  0  0  0  0  0  0  0  0  0
   40.0220   41.8980   30.0370 C   0  0  0  0  0  0  0  0  0  0  0  0
   42.2260   42.9660   29.6370 C   0  0  0  0  0  0  0  0  0  0  0  0
   41.3450   41.7280   29.7130 C   0  0  0  0  0  0  0  0  0  0  0  0
  2 10  1  0
  3  5  1  0
  4  2  1  0
  5  7  2  0
  7  1  1  0
  8  5  1  0
  9  1  2  0
 10  6  1  0
 10 11  1  0
 11  8  2  0
 11  9  1  0
M  END
$$$$

     RDKit          3D

 11 12  0  0  0  0  0  0  0  0999 V2000
   40.6370   40.3620   27.6920 C   0  0  0  0  0  0  0  0  0  0  0  0
   41.1940   41.7400   27.9470 N   0  0  0  0  0  0  0  0  0  0  0  0
   41.2710   41.8450   29.4760 C   0  0  0  0  0  0  0  0  0  0  0  0
   41.9430   42.9650   29.9660 C   0  0  0  0  0  0  0  0  0  0  0  0
   40.9240   42.7040   32.1300 C   0  0  0  0  0  0  0  0  0  0  0  0
   41.6960   43.4990   31.2630 N   0  0  0  0  0  0  0  0  0  0  0  0
   40.5310   41.4190   31.8480 C   0  0  0  0  0  0  0  0  0  0  0  0
   43.3300   43.7180   28.9980 Br  0  0  0  0  0  0  0  0  0  0  0  0
   40.4510   39.6430   30.2040 N   0  0  0  0  0  0  0  0  0  0  0  0
   40.7310   40.9580   30.5460 C   0  0  0  0  0  0  0  0  0  0  0  0
   40.9050   39.4460   28.9290 C   0  0  0  0  0  0  0  0  0  0  0  0
  1  2  1  0
  1 11  1  0
  2  3  1  0
  3  4  2  0
  3 10  1  0
  4  6  1  0
  6  5  2  0
  7  5  1  0
  8  4  1  0
  9 10  1  0
 10  7  2  0
 11  9  1  0
M  END
$$$$

     RDKit          3D

 10 11  0  0  0  0  0  0  0  0999 V2000
   39.7140   39.0150   27.8410 O   0  0  0  0  0  0  0  0  0  0  0  0
   39.0370   41.2540   28.2130 C   0  0  0  0  0  0  0  0  0  0  0  0
   40.3090   42.0790   28.0610 C   0  0  0  0  0  0  0  0  0  0  0  0
   40.4770   43.8400   28.3110 S   0  0  0  0  0  0  0  0  0  0  0  0
   40.2230   41.0970   29.1990 C   0  0  0  0  0  0  0  0  0  0  0  0
   37.8600   41.1270   28.9440 O   0  0  0  0  0  0  0  0  0  0  0  0
   41.6240   39.7720   30.2170 O   0  0  0  0  0  0  0  0  0  0  0  0
   39.5740   40.6090   25.9350 C   0  0  0  0  0  0  0  0  0  0  0  0
   39.0830   40.1720   27.1050 C   0  0  0  0  0  0  0  0  0  0  0  0
   40.5780   39.6610   29.0390 C   0  0  0  0  0  0  0  0  0  0  0  0
  1 10  1  0
  2  6  1  0
  2  5  1  0
  3  2  1  0
  3  4  1  0
  3  5  1  0
  5 10  1  0
  9  8  1  0
  9  1  1  0
  9  2  1  0
 10  7  2  0
M  END
$$$$

     RDKit          3D

  6  5  0  0  0  0  0  0  0  0999 V2000
   41.1230   41.9470   29.6630 O   0  0  0  0  0  0  0  0  0  0  0  0
   41.4220   37.8300   30.3920 N   0  0  0  0  0  0  0  0  0  0  0  0
   40.3000   39.9420   30.7380 C   0  0  0  0  0  0  0  0  0  0  0  0
   41.0630   39.0970   29.7180 C   0  0  0  0  0  0  0  0  0  0  0  0
   40.7840   42.0580   31.8160 O   0  0  0  0  0  0  0  0  0  0  0  0
   40.8140   41.3940   30.7660 C   0  0  0  0  0  0  0  0  0  0  0  0
  1  6  2  0
  3  6  1  0
  4  2  1  0
  4  3  1  0
  6  5  1  0
M  END
$$$$
