
     RDKit          3D

  6  5  0  0  0  0  0  0  0  0999 V2000
   43.1610   36.9820   30.9710 O   0  0  0  0  0  0  0  0  0  0  0  0
   41.0700   38.2070   29.9040 O   0  0  0  0  0  0  0  0  0  0  0  0
   42.2460   38.7200   29.8500 C   0  0  0  0  0  0  0  0  0  0  0  0
   44.4230   38.6940   30.5390 O   0  0  0  0  0  0  0  0  0  0  0  0
   43.2710   38.1270   30.4560 C   0  0  0  0  0  0  0  0  0  0  0  0
   42.4650   40.0350   29.1200 C   0  0  0  0  0  0  0  0  0  0  0  0
  3  2  2  0
  3  5  1  0
  5  4  2  0
  5  1  1  0
  6  3  1  0
M  END
$$$$

     RDKit          3D

 15 15  0  0  0  0  0  0  0  0999 V2000
   41.0720   41.1370   28.4830 C   0  0  0  0  0  0  0  0  0  0  0  0
   45.5190   38.5270   33.1350 O   0  0  0  0  0  0  0  0  0  0  0  0
   39.8310   37.7540   27.7530 O   0  0  0  0  0  0  0  0  0  0  0  0
   44.6470   38.6020   31.0970 N   0  0  0  0  0  0  0  0  0  0  0  0
   45.8590   39.1370   31.7190 C   0  0  0  0  0  0  0  0  0  0  0  0
   39.0390   40.3410   27.4060 O   0  0  0  0  0  0  0  0  0  0  0  0
   44.7900   37.6780   30.0040 C   0  0  0  0  0  0  0  0  0  0  0  0
   40.2490   40.0940   28.0350 C   0  0  0  0  0  0  0  0  0  0  0  0
   41.8360   38.4510   29.0170 C   0  0  0  0  0  0  0  0  0  0  0  0
   40.6460   38.7330   28.2970 C   0  0  0  0  0  0  0  0  0  0  0  0
   42.4380   40.7830   28.8360 C   0  0  0  0  0  0  0  0  0  0  0  0
   42.8580   39.4400   29.0190 C   0  0  0  0  0  0  0  0  0  0  0  0
   44.3040   38.8640   28.9590 C   0  0  0  0  0  0  0  0  0  0  0  0
   42.0150   37.2830   29.7400 N   0  0  0  0  0  0  0  0  0  0  0  0
   40.6140   36.7180   27.0720 C   0  0  0  0  0  0  0  0  0  0  0  0
  1 11  1  0
  3 10  1  0
  4  5  1  0
  5  2  1  0
  6  8  1  0
  7  4  1  0
  8 10  1  0
  8  1  2  0
  9 12  1  0
  9 14  1  0
 10  9  2  0
 11 12  2  0
 13 12  1  0
 13  7  1  0
 15  3  1  0
M  END
$$$$

     RDKit          3D

 12 13  0  0  0  0  0  0  0  0999 V2000
   45.5310   36.5740   32.0010 N   0  0  0  0  0  0  0  0  0  0  0  0
   42.6120   38.1760   30.4580 C   0  0  0  0  0  0  0  0  0  0  0  0
   41.1310   37.8750   30.4160 C   0  0  0  0  0  0  0  0  0  0  0  0
   44.9710   38.7950   31.5830 C   0  0  0  0  0  0  0  0  0  0  0  0
   41.3150   40.3620   28.8820 C   0  0  0  0  0  0  0  0  0  0  0  0
   40.3530   39.5490   28.8500 N   0  0  0  0  0  0  0  0  0  0  0  0
   44.8460   37.4450   31.1110 N   0  0  0  0  0  0  0  0  0  0  0  0
   43.4440   37.0610   31.1470 C   0  0  0  0  0  0  0  0  0  0  0  0
   44.6130   39.6400   30.4040 C   0  0  0  0  0  0  0  0  0  0  0  0
   42.6160   40.4120   29.3890 C   0  0  0  0  0  0  0  0  0  0  0  0
   43.1760   39.3420   30.0690 C   0  0  0  0  0  0  0  0  0  0  0  0
   40.7140   38.1010   29.0510 C   0  0  0  0  0  0  0  0  0  0  0  0
  2  8  1  0
  3  2  1  0
  5 10  2  0
  6  5  1  0
  6 12  1  0
  7  8  1  0
  7  4  1  0
  7  1  1  0
  9  4  1  0
 10 11  1  0
 11  9  1  0
 11  2  2  0
 12  3  1  0
M  END
$$$$

     RDKit          3D

 22 24  0  0  0  0  0  0  0  0999 V2000
   40.2350   39.8040   26.3370 C   0  0  0  0  0  0  0  0  0  0  0  0
   39.8230   35.0600   35.1070 C   0  0  0  0  0  0  0  0  0  0  0  0
   41.3730   41.3110   28.5440 C   0  0  0  0  0  0  0  0  0  0  0  0
   42.3040   36.8980   30.8410 C   0  0  0  0  0  0  0  0  0  0  0  0
   42.6670   37.7320   32.1140 C   0  0  0  0  0  0  0  0  0  0  0  0
   41.6650   37.4870   28.4520 C   0  0  0  0  0  0  0  0  0  0  0  0
   40.5290   40.9650   27.3060 C   0  0  0  0  0  0  0  0  0  0  0  0
   41.4520   39.0450   26.6830 C   0  0  0  0  0  0  0  0  0  0  0  0
   39.3990   35.5130   33.7040 C   0  0  0  0  0  0  0  0  0  0  0  0
   42.7750   36.3500   32.9440 O   0  0  0  0  0  0  0  0  0  0  0  0
   42.5910   37.5490   29.4990 N   0  0  0  0  0  0  0  0  0  0  0  0
   39.1950   41.4920   27.6410 O   0  0  0  0  0  0  0  0  0  0  0  0
   41.6690   35.6060   33.0150 C   0  0  0  0  0  0  0  0  0  0  0  0
   38.6000   35.1460   35.9330 N   0  0  0  0  0  0  0  0  0  0  0  0
   41.0230   36.1270   30.7290 N   0  0  0  0  0  0  0  0  0  0  0  0
   40.9620   36.5320   28.1040 O   0  0  0  0  0  0  0  0  0  0  0  0
   38.0490   41.3930   26.7230 C   0  0  0  0  0  0  0  0  0  0  0  0
   41.8620   39.9830   28.9110 C   0  0  0  0  0  0  0  0  0  0  0  0
   40.8330   35.2880   31.9030 C   0  0  0  0  0  0  0  0  0  0  0  0
   40.5940   36.3120   33.1850 C   0  0  0  0  0  0  0  0  0  0  0  0
   43.9730   38.1150   29.3400 C   0  0  0  0  0  0  0  0  0  0  0  0
   41.6210   38.8920   28.0420 C   0  0  0  0  0  0  0  0  0  0  0  0
  1  8  1  0
  1  7  1  0
  2 14  1  0
  3 18  1  0
  4 11  1  0
  4  5  1  0
  5 10  1  0
  6 11  1  0
  7 12  1  0
  7  3  1  0
  8 22  1  0
  9  2  1  0
 13 10  1  0
 13 20  1  0
 15  4  1  0
 16  6  2  0
 17 12  1  0
 19 15  1  0
 19 13  1  0
 19 20  1  0
 20  9  1  0
 21 11  1  0
 22  6  1  0
 22 18  1  0
M  END
$$$$

     RDKit          3D

 13 13  0  0  0  0  0  0  0  0999 V2000
   45.0700   38.6620   29.4030 C   0  0  0  0  0  0  0  0  0  0  0  0
   41.5090   39.0980   28.6470 C   0  0  0  0  0  0  0  0  0  0  0  0
   42.7100   37.2540   29.3180 C   0  0  0  0  0  0  0  0  0  0  0  0
   41.8490   40.0850   29.5540 O   0  0  0  0  0  0  0  0  0  0  0  0
   39.8880   41.1580   27.9400 C   0  0  0  0  0  0  0  0  0  0  0  0
   40.5020   38.2470   29.0860 O   0  0  0  0  0  0  0  0  0  0  0  0
   45.6970   37.7430   31.6320 O   0  0  0  0  0  0  0  0  0  0  0  0
   43.3750   37.4430   30.6600 C   0  0  0  0  0  0  0  0  0  0  0  0
   40.7560   40.0990   27.7890 C   0  0  0  0  0  0  0  0  0  0  0  0
   42.7880   38.5660   31.2090 O   0  0  0  0  0  0  0  0  0  0  0  0
   44.3610   38.2610   28.2190 O   0  0  0  0  0  0  0  0  0  0  0  0
   44.9180   37.5420   30.4200 C   0  0  0  0  0  0  0  0  0  0  0  0
   42.8490   38.2350   28.3970 C   0  0  0  0  0  0  0  0  0  0  0  0
  1 12  1  0
  2  6  1  0
  2  4  1  0
  3  8  1  0
  8 10  1  0
  9  5  2  0
  9  2  1  0
 11 13  1  0
 11  1  1  0
 12  8  1  0
 12  7  1  0
 13  2  1  0
 13  3  1  0
M  END
$$$$

     RDKit          3D

  5  4  0  0  0  0  0  0  0  0999 V2000
   41.9240   39.7890   29.3800 S   0  0  0  0  0  0  0  0  0  0  0  0
   40.6840   38.8130   29.0260 C   0  0  0  0  0  0  0  0  0  0  0  0
   42.2720   37.1700   29.8710 N   0  0  0  0  0  0  0  0  0  0  0  0
   43.8290   38.2670   28.0710 C   0  0  0  0  0  0  0  0  0  0  0  0
   42.7180   38.3060   29.1020 C   0  0  0  0  0  0  0  0  0  0  0  0
  2  1  1  0
  5  4  1  0
  5  1  1  0
  5  3  1  0
M  END
$$$$

     RDKit          3D

  8  7  0  0  0  0  0  0  0  0999 V2000
   41.8870   38.1160   29.6980 C   0  0  0  0  0  0  0  0  0  0  0  0
   43.9400   39.3320   30.4560 C   0  0  0  0  0  0  0  0  0  0  0  0
   40.2080   38.0490   29.0020 S   0  0  0  0  0  0  0  0  0  0  0  0
   44.9850   39.4390   29.4550 O   0  0  0  0  0  0  0  0  0  0  0  0
   44.1030   38.0740   31.2910 C   0  0  0  0  0  0  0  0  0  0  0  0
   42.6650   39.2220   29.6470 C   0  0  0  0  0  0  0  0  0  0  0  0
   44.4440   37.0410   30.6340 O   0  0  0  0  0  0  0  0  0  0  0  0
   43.9520   38.1020   32.5290 O   0  0  0  0  0  0  0  0  0  0  0  0
  2  4  1  0
  2  5  1  0
  3  1  1  0
  5  8  1  0
  6  1  2  3
  6  2  1  0
  7  5  2  0
M  END
$$$$

     RDKit          3D

  8  7  0  0  0  0  0  0  0  0999 V2000
   44.1990   38.0650   31.1880 S   0  0  0  0  0  0  0  0  0  0  0  0
   44.1000   39.4960   31.5860 O   0  0  0  0  0  0  0  0  0  0  0  0
   40.9460   38.7900   29.2160 C   0  0  0  0  0  0  0  0  0  0  0  0
   42.1700   39.0540   30.0610 C   0  0  0  0  0  0  0  0  0  0  0  0
   45.5060   37.5630   30.7580 O   0  0  0  0  0  0  0  0  0  0  0  0
   43.1520   37.9350   29.8500 C   0  0  0  0  0  0  0  0  0  0  0  0
   40.8890   37.8590   28.4580 O   0  0  0  0  0  0  0  0  0  0  0  0
   43.7230   37.1760   32.2470 O   0  0  0  0  0  0  0  0  0  0  0  0
  1  2  1  0
  1  8  1  0
  3  4  1  0
  5  1  1  0
  6  4  1  0
  6  1  1  0
  7  3  2  0
M  END
$$$$

     RDKit          3D

 14 15  0  0  0  0  0  0  0  0999 V2000
   42.1450   40.1950   26.8030 C   0  0  0  0  0  0  0  0  0  0  0  0
   45.0420   37.3380   31.1110 O   0  0  0  0  0  0  0  0  0  0  0  0
   42.2230   36.8830   30.2150 N   0  0  0  0  0  0  0  0  0  0  0  0
   44.0200   38.3010   31.3650 P   0  0  0  0  0  0  0  0  0  0  0  0
   41.5530   40.0560   28.1430 C   0  0  0  0  0  0  0  0  0  0  0  0
   41.1850   37.4400   27.7420 O   0  0  0  0  0  0  0  0  0  0  0  0
   40.1660   39.3750   28.3620 O   0  0  0  0  0  0  0  0  0  0  0  0
   43.0910   37.8050   32.6380 O   0  0  0  0  0  0  0  0  0  0  0  0
   42.9530   38.0400   29.9910 C   0  0  0  0  0  0  0  0  0  0  0  0
   44.5110   39.7150   31.6160 O   0  0  0  0  0  0  0  0  0  0  0  0
   40.8430   37.4460   30.0840 C   0  0  0  0  0  0  0  0  0  0  0  0
   42.2370   39.0680   29.1230 C   0  0  0  0  0  0  0  0  0  0  0  0
   40.9580   38.2620   28.8520 C   0  0  0  0  0  0  0  0  0  0  0  0
   41.5460   41.4050   28.5930 O   0  0  0  0  0  0  0  0  0  0  0  0
  2  4  2  0
  4 10  1  0
  4  8  1  0
  5  1  1  0
  5  7  1  0
  5 14  1  0
  5 12  1  0
  6 13  1  0
  7 13  1  0
  9  3  1  0
  9  4  1  0
 11  3  1  0
 12  9  1  0
 13 12  1  0
 13 11  1  0
M  END
$$$$

     RDKit          3D

 11 10  0  0  0  0  0  0  0  0999 V2000
   43.8850   38.0990   29.4260 O   0  0  0  0  0  0  0  0  0  0  0  0
   40.9410   36.8290   28.0460 Cl  0  0  0  0  0  0  0  0  0  0  0  0
   40.8480   39.6580   28.3350 C   0  0  0  0  0  0  0  0  0  0  0  0
   41.7100   38.3680   28.4130 C   0  0  0  0  0  0  0  0  0  0  0  0
   42.0040   37.5510   30.9370 C   0  0  0  0  0  0  0  0  0  0  0  0
   39.5630   39.7270   28.1670 C   0  0  0  0  0  0  0  0  0  0  0  0
   42.5050   38.3810   29.7300 C   0  0  0  0  0  0  0  0  0  0  0  0
   41.6700   40.9420   28.5060 C   0  0  0  0  0  0  0  0  0  0  0  0
   42.0210   41.4590   27.1220 C   0  0  0  0  0  0  0  0  0  0  0  0
   42.6970   38.0710   32.2210 C   0  0  0  0  0  0  0  0  0  0  0  0
   42.3660   36.2090   30.9400 O   0  0  0  0  0  0  0  0  0  0  0  0
  3  4  1  0
  3  8  1  0
  4  2  1  0
  4  7  1  0
  5 11  1  0
  5 10  1  0
  6  3  2  0
  7  1  1  0
  7  5  1  0
  9  8  1  0
M  END
$$$$

     RDKit          3D

 19 19  0  0  0  0  0  0  0  0999 V2000
   38.8210   37.2140   28.7060 C   0  0  0  0  0  0  0  0  0  0  0  0
   35.2420   35.3460   28.5910 C   0  0  0  0  0  0  0  0  0  0  0  0
   37.1090   32.3250   27.4680 C   0  0  0  0  0  0  0  0  0  0  0  0
   42.1430   37.7390   30.6710 C   0  0  0  0  0  0  0  0  0  0  0  0
   37.6080   34.9950   28.2380 C   0  0  0  0  0  0  0  0  0  0  0  0
   36.8310   39.1370   27.4040 I   0  0  0  0  0  0  0  0  0  0  0  0
   35.8740   33.2090   27.5740 C   0  0  0  0  0  0  0  0  0  0  0  0
   37.8790   36.2280   28.6580 N   0  0  0  0  0  0  0  0  0  0  0  0
   40.9420   38.0150   29.7850 C   0  0  0  0  0  0  0  0  0  0  0  0
   40.0190   36.9720   29.3790 C   0  0  0  0  0  0  0  0  0  0  0  0
   43.1670   36.9720   30.0380 N   0  0  0  0  0  0  0  0  0  0  0  0
   38.5550   38.7160   28.2720 C   0  0  0  0  0  0  0  0  0  0  0  0
   34.1490   34.8430   28.0830 C   0  0  0  0  0  0  0  0  0  0  0  0
   39.3820   33.7650   28.3410 Br  0  0  0  0  0  0  0  0  0  0  0  0
   39.5410   39.7470   28.7390 C   0  0  0  0  0  0  0  0  0  0  0  0
   32.4590   35.2590   27.3800 Br  0  0  0  0  0  0  0  0  0  0  0  0
   36.1870   34.3870   28.3910 C   0  0  0  0  0  0  0  0  0  0  0  0
   40.7200   39.4340   29.4570 C   0  0  0  0  0  0  0  0  0  0  0  0
   34.3490   32.1660   27.0920 Br  0  0  0  0  0  0  0  0  0  0  0  0
  1 10  1  0
  5 14  1  0
  5 17  1  0
  5  8  1  0
  6 12  1  0
  7  3  1  0
  7 17  1  0
  8  1  1  0
  9  4  1  0
 10  9  2  0
 11  4  1  0
 12  1  2  0
 12 15  1  0
 13  2  1  0
 15 18  2  0
 16 13  1  0
 17  2  1  0
 18  9  1  0
 19  7  1  0
M  END
$$$$

     RDKit          3D

 21 21  0  0  0  0  0  0  0  0999 V2000
   39.2520   41.1150   27.3110 C   0  0  0  0  0  0  0  0  0  0  0  0
   42.8460   38.3650   29.7620 C   0  0  0  0  0  0  0  0  0  0  0  0
   42.8760   36.6470   33.5280 O   0  0  0  0  0  0  0  0  0  0  0  0
   41.2400   38.1040   27.7520 C   0  0  0  0  0  0  0  0  0  0  0  0
   43.4270   39.7910   29.7670 C   0  0  0  0  0  0  0  0  0  0  0  0
   40.8040   39.2580   27.3400 C   0  0  0  0  0  0  0  0  0  0  0  0
   40.9470   34.0590   31.4460 C   0  0  0  0  0  0  0  0  0  0  0  0
   39.5900   39.8180   27.7210 C   0  0  0  0  0  0  0  0  0  0  0  0
   41.3900   41.2660   26.2610 C   0  0  0  0  0  0  0  0  0  0  0  0
   41.9740   34.6630   32.4120 C   0  0  0  0  0  0  0  0  0  0  0  0
   41.5090   38.1950   29.0370 C   0  0  0  0  0  0  0  0  0  0  0  0
   45.2620   39.8990   30.4600 Br  0  0  0  0  0  0  0  0  0  0  0  0
   42.6890   37.7950   31.1960 C   0  0  0  0  0  0  0  0  0  0  0  0
   41.7890   36.1210   32.7520 C   0  0  0  0  0  0  0  0  0  0  0  0
   40.6710   36.8160   27.2670 C   0  0  0  0  0  0  0  0  0  0  0  0
   40.2290   41.8760   26.6740 C   0  0  0  0  0  0  0  0  0  0  0  0
   40.7180   36.0770   28.4660 O   0  0  0  0  0  0  0  0  0  0  0  0
   40.5190   36.7020   30.7630 O   0  0  0  0  0  0  0  0  0  0  0  0
   42.2410   38.8040   32.0310 O   0  0  0  0  0  0  0  0  0  0  0  0
   41.6370   39.9280   26.5560 C   0  0  0  0  0  0  0  0  0  0  0  0
   41.5730   36.8280   31.4140 C   0  0  0  0  0  0  0  0  0  0  0  0
  1  8  1  0
  2 11  1  0
  2  5  1  0
  2 13  1  0
  4 15  1  0
  4 11  1  0
  5 12  1  0
  6  8  2  0
  6  4  1  0
  7 10  1  0
  9 20  2  0
  9 16  1  0
 10 14  1  0
 13 21  1  0
 13 19  1  0
 14  3  1  0
 15 17  1  0
 16  1  2  0
 18 21  2  0
 20  6  1  0
 21 14  1  0
M  END
$$$$

     RDKit          3D

 14 15  0  0  0  0  0  0  0  0999 V2000
   43.3220   39.7710   30.1640 O   0  0  0  0  0  0  0  0  0  0  0  0
   43.6740   37.4840   30.3520 C   0  0  0  0  0  0  0  0  0  0  0  0
   42.0640   37.2340   28.7040 C   0  0  0  0  0  0  0  0  0  0  0  0
   43.9920   38.6850   29.6210 C   0  0  0  0  0  0  0  0  0  0  0  0
   42.4400   38.5820   33.0000 O   0  0  0  0  0  0  0  0  0  0  0  0
   43.2260   40.3340   27.8400 C   0  0  0  0  0  0  0  0  0  0  0  0
   44.0880   41.2780   28.5440 O   0  0  0  0  0  0  0  0  0  0  0  0
   42.8460   37.4470   32.6060 C   0  0  0  0  0  0  0  0  0  0  0  0
   45.3030   37.9990   31.0410 O   0  0  0  0  0  0  0  0  0  0  0  0
   40.8180   36.5520   28.4880 O   0  0  0  0  0  0  0  0  0  0  0  0
   42.0820   37.4560   30.2360 C   0  0  0  0  0  0  0  0  0  0  0  0
   42.9730   37.2820   31.3170 N   0  0  0  0  0  0  0  0  0  0  0  0
   42.7590   39.3910   29.0160 C   0  0  0  0  0  0  0  0  0  0  0  0
   43.0700   36.4370   33.3320 O   0  0  0  0  0  0  0  0  0  0  0  0
  2  9  1  0
  2 12  1  0
  4  1  1  0
  4  2  1  0
  6  7  1  0
  8  5  2  0
  8 14  1  0
 10  3  1  0
 11  3  1  0
 11  2  1  0
 11 12  1  0
 12  8  1  0
 13  6  1  0
 13  4  1  0
 13  1  1  0
M  END
$$$$

     RDKit          3D

  9  8  0  0  0  0  0  0  0  0999 V2000
   44.7960   40.1670   27.6620 S   0  0  0  0  0  0  0  0  0  0  0  0
   42.4740   40.8710   29.4890 O   0  0  0  0  0  0  0  0  0  0  0  0
   41.9630   39.8900   28.6490 C   0  0  0  0  0  0  0  0  0  0  0  0
   43.4210   39.5550   26.7930 C   0  0  0  0  0  0  0  0  0  0  0  0
   41.8140   38.1940   31.0100 O   0  0  0  0  0  0  0  0  0  0  0  0
   42.2550   38.1390   29.5020 P   0  0  0  0  0  0  0  0  0  0  0  0
   41.1730   37.1790   28.8500 O   0  0  0  0  0  0  0  0  0  0  0  0
   42.0880   39.8030   27.3930 N   0  0  0  0  0  0  0  0  0  0  0  0
   43.7050   37.6180   29.2860 O   0  0  0  0  0  0  0  0  0  0  0  0
  3  2  2  0
  3  6  1  0
  4  8  1  0
  4  1  1  0
  6  5  1  0
  7  6  2  0
  8  3  1  0
  9  6  1  0
M  END
$$$$

     RDKit          3D

  7  6  0  0  0  0  0  0  0  0999 V2000
   42.4550   37.7060   28.7810 O   0  0  0  0  0  0  0  0  0  0  0  0
   42.7970   38.6580   29.8600 S   0  0  0  0  0  0  0  0  0  0  0  0
   44.2220   39.1270   29.5780 O   0  0  0  0  0  0  0  0  0  0  0  0
   42.5960   37.9900   31.3940 C   0  0  0  0  0  0  0  0  0  0  0  0
   43.2160   38.5980   32.4890 O   0  0  0  0  0  0  0  0  0  0  0  0
   41.6560   39.6460   29.8120 O   0  0  0  0  0  0  0  0  0  0  0  0
   43.5010   36.7330   31.4480 O   0  0  0  0  0  0  0  0  0  0  0  0
  1  2  1  0
  2  4  1  0
  3  2  1  0
  4  7  1  0
  4  5  1  0
  6  2  1  0
M  END
$$$$

     RDKit          3D

 11 11  0  0  0  0  0  0  0  0999 V2000
   43.3750   37.8140   30.8240 C   0  0  0  0  0  0  0  0  0  0  0  0
   44.1330   36.6850   31.0320 F   0  0  0  0  0  0  0  0  0  0  0  0
   42.1230   37.5330   30.0200 C   0  0  0  0  0  0  0  0  0  0  0  0
   43.9970   38.9210   29.8760 C   0  0  0  0  0  0  0  0  0  0  0  0
   43.5710   41.1240   28.6440 C   0  0  0  0  0  0  0  0  0  0  0  0
   45.2920   38.8460   29.8490 N   0  0  0  0  0  0  0  0  0  0  0  0
   44.0330   42.1050   29.7020 O   0  0  0  0  0  0  0  0  0  0  0  0
   41.5740   39.1610   29.4730 S   0  0  0  0  0  0  0  0  0  0  0  0
   41.1840   36.8450   30.8030 O   0  0  0  0  0  0  0  0  0  0  0  0
   43.1730   39.7740   29.2730 C   0  0  0  0  0  0  0  0  0  0  0  0
   43.1180   38.3140   32.0700 O   0  0  0  0  0  0  0  0  0  0  0  0
  1  2  1  0
  1 11  1  0
  3  9  1  0
  3  1  1  0
  4  1  1  0
  5  7  1  0
  6  4  2  0
  8  3  1  0
 10  5  1  0
 10  8  1  0
 10  4  1  0
M  END
$$$$

     RDKit          3D

 15 15  0  0  0  0  0  0  0  0999 V2000
   40.7960   37.9680   26.8350 C   0  0  0  0  0  0  0  0  0  0  0  0
   40.3040   36.9080   26.6010 O   0  0  0  0  0  0  0  0  0  0  0  0
   42.6200   38.1490   28.1140 C   0  0  0  0  0  0  0  0  0  0  0  0
   41.2150   38.1440   28.0260 N   0  0  0  0  0  0  0  0  0  0  0  0
   41.3800   40.2160   23.7880 C   0  0  0  0  0  0  0  0  0  0  0  0
   41.2730   39.1190   24.6640 C   0  0  0  0  0  0  0  0  0  0  0  0
   39.7920   40.0450   26.4900 C   0  0  0  0  0  0  0  0  0  0  0  0
   41.0900   39.1910   26.1790 C   0  0  0  0  0  0  0  0  0  0  0  0
   37.1920   41.2580   26.9110 O   0  0  0  0  0  0  0  0  0  0  0  0
   41.5200   40.1330   29.1820 O   0  0  0  0  0  0  0  0  0  0  0  0
   41.6230   39.1480   28.5400 C   0  0  0  0  0  0  0  0  0  0  0  0
   37.3860   40.4110   26.0610 C   0  0  0  0  0  0  0  0  0  0  0  0
   43.0640   36.7050   28.5700 N   0  0  0  0  0  0  0  0  0  0  0  0
   38.5540   39.6660   25.8580 C   0  0  0  0  0  0  0  0  0  0  0  0
   36.3780   39.8030   25.0430 C   0  0  0  0  0  0  0  0  0  0  0  0
  1  4  1  0
  2  1  2  0
  3 11  1  0
  3 13  1  0
  4  3  1  0
  4 11  1  0
  5  6  1  0
  8  6  1  0
  8  7  1  0
  8  1  1  0
 11 10  2  0
 12  9  2  0
 14 12  1  0
 14  7  2  3
 15 12  1  0
M  END
$$$$

     RDKit          3D

 17 18  0  0  0  0  0  0  0  0999 V2000
   41.9960   36.9220   28.4780 O   0  0  0  0  0  0  0  0  0  0  0  0
   38.8660   37.6330   27.7820 C   0  0  0  0  0  0  0  0  0  0  0  0
   34.4010   36.7260   26.9780 C   0  0  0  0  0  0  0  0  0  0  0  0
   35.6570   36.7140   27.4780 N   0  0  0  0  0  0  0  0  0  0  0  0
   40.7970   38.7860   29.1330 C   0  0  0  0  0  0  0  0  0  0  0  0
   33.6990   35.1810   25.4690 O   0  0  0  0  0  0  0  0  0  0  0  0
   39.6960   36.7600   28.6560 C   0  0  0  0  0  0  0  0  0  0  0  0
   39.7820   41.1080   28.6810 C   0  0  0  0  0  0  0  0  0  0  0  0
   34.5240   37.2430   25.5000 C   0  0  0  0  0  0  0  0  0  0  0  0
   39.3060   39.0120   27.5150 C   0  0  0  0  0  0  0  0  0  0  0  0
   33.3460   36.6840   24.9180 C   0  0  0  0  0  0  0  0  0  0  0  0
   36.3110   35.8390   28.3350 C   0  0  0  0  0  0  0  0  0  0  0  0
   33.9680   35.2770   26.7950 C   0  0  0  0  0  0  0  0  0  0  0  0
   36.5260   37.5290   27.0480 C   0  0  0  0  0  0  0  0  0  0  0  0
   40.9630   37.4910   28.8000 C   0  0  0  0  0  0  0  0  0  0  0  0
   40.0620   39.6800   28.5220 C   0  0  0  0  0  0  0  0  0  0  0  0
   37.4680   37.2780   27.4830 C   0  0  0  0  0  0  0  0  0  0  0  0
  1 15  2  0
  2  7  1  0
  3  4  1  0
  4 12  1  0
  6 13  1  0
  7 15  1  0
  9  3  1  0
 10  2  1  0
 10 16  1  0
 11  6  1  0
 11  9  1  0
 13  3  1  0
 14  4  1  0
 14 17  1  0
 15  5  1  0
 16  8  1  0
 16  5  2  0
 17  2  2  3
M  END
$$$$

     RDKit          3D

 23 24  0  0  0  0  0  0  0  0999 V2000
   37.8510   35.9180   32.2770 C   0  0  0  0  0  0  0  0  0  0  0  0
   39.6200   37.8410   24.8470 C   0  0  0  0  0  0  0  0  0  0  0  0
   34.2780   38.1670   33.9460 C   0  0  0  0  0  0  0  0  0  0  0  0
   40.2030   37.3000   27.0520 C   0  0  0  0  0  0  0  0  0  0  0  0
   39.2990   35.5160   31.5820 C   0  0  0  0  0  0  0  0  0  0  0  0
   41.7750   38.2050   30.4330 C   0  0  0  0  0  0  0  0  0  0  0  0
   40.6590   35.4920   32.4510 C   0  0  0  0  0  0  0  0  0  0  0  0
   40.6550   37.5610   29.5870 C   0  0  0  0  0  0  0  0  0  0  0  0
   41.0320   36.9230   32.6010 N   0  0  0  0  0  0  0  0  0  0  0  0
   32.5120   37.3890   32.6130 O   0  0  0  0  0  0  0  0  0  0  0  0
   39.9910   36.7090   28.2890 N   0  0  0  0  0  0  0  0  0  0  0  0
   41.9950   37.0910   31.5910 C   0  0  0  0  0  0  0  0  0  0  0  0
   32.6560   39.4900   32.7150 O   0  0  0  0  0  0  0  0  0  0  0  0
   36.2790   35.7070   31.7870 C   0  0  0  0  0  0  0  0  0  0  0  0
   41.0650   38.2450   27.1680 C   0  0  0  0  0  0  0  0  0  0  0  0
   35.0530   36.7940   33.6990 C   0  0  0  0  0  0  0  0  0  0  0  0
   39.8600   36.8000   30.4910 C   0  0  0  0  0  0  0  0  0  0  0  0
   33.0920   38.3750   33.0270 C   0  0  0  0  0  0  0  0  0  0  0  0
   40.4170   39.0030   25.0640 C   0  0  0  0  0  0  0  0  0  0  0  0
   34.9660   36.4050   32.1650 C   0  0  0  0  0  0  0  0  0  0  0  0
   39.4540   36.9720   25.9080 C   0  0  0  0  0  0  0  0  0  0  0  0
   41.4700   38.9610   25.8540 C   0  0  0  0  0  0  0  0  0  0  0  0
   36.3040   36.3600   34.2240 C   0  0  0  0  0  0  0  0  0  0  0  0
  2 19  1  0
  2 21  1  0
  4 15  2  0
  4 11  1  0
  5  1  1  0
  5  7  1  0
  6 12  1  0
  7  9  1  0
  8 11  1  0
  8  6  1  0
  8 17  1  0
 10 18  2  0
 12  9  1  0
 13 18  1  0
 14 20  1  0
 14  1  1  0
 16  3  1  0
 16 23  1  0
 17  5  1  0
 18  3  1  0
 19 22  1  0
 20 16  1  0
 21  4  1  0
 22 15  1  0
M  END
$$$$

     RDKit          3D

  7  6  0  0  0  0  0  0  0  0999 V2000
   43.2310   38.9240   29.8950 C   0  0  0  0  0  0  0  0  0  0  0  0
   42.5580   38.1190   31.0130 C   0  0  0  0  0  0  0  0  0  0  0  0
   41.6050   37.2670   30.6470 N   0  0  0  0  0  0  0  0  0  0  0  0
   42.1960   39.7660   29.0900 C   0  0  0  0  0  0  0  0  0  0  0  0
   43.8290   37.9940   28.9830 O   0  0  0  0  0  0  0  0  0  0  0  0
   42.8820   38.2630   32.1910 O   0  0  0  0  0  0  0  0  0  0  0  0
   44.3190   39.8100   30.5270 C   0  0  0  0  0  0  0  0  0  0  0  0
  1  7  1  0
  1  2  1  0
  2  6  2  0
  3  2  1  0
  4  1  1  0
  5  1  1  0
M  END
$$$$
