
     RDKit          3D

 11 12  0  0  0  0  0  0  0  0999 V2000
   37.8410   41.2950   21.3630 O   0  0  0  0  0  0  0  0  0  0  0  0
   35.6400   39.3940   23.8830 C   0  0  0  0  0  0  0  0  0  0  0  0
   36.9360   40.9910   27.0760 O   0  0  0  0  0  0  0  0  0  0  0  0
   33.3380   39.3280   24.1840 O   0  0  0  0  0  0  0  0  0  0  0  0
   38.1910   40.2260   23.5860 C   0  0  0  0  0  0  0  0  0  0  0  0
   34.1920   39.3590   23.1240 C   0  0  0  0  0  0  0  0  0  0  0  0
   35.4720   40.2280   25.2150 C   0  0  0  0  0  0  0  0  0  0  0  0
   37.3740   40.9490   24.8500 C   0  0  0  0  0  0  0  0  0  0  0  0
   38.3290   41.6050   22.6240 C   0  0  0  0  0  0  0  0  0  0  0  0
   36.0510   40.9260   24.0400 N   0  0  0  0  0  0  0  0  0  0  0  0
   36.7130   40.1010   26.1000 C   0  0  0  0  0  0  0  0  0  0  0  0
  1  9  1  0
  2  6  1  0
  2 10  1  0
  2  7  1  0
  5  8  1  0
  6  4  1  0
  7 11  1  0
  8 11  1  0
  9  5  1  0
 10  8  1  0
 10  7  1  0
 11  3  1  0
M  END
$$$$

     RDKit          3D

 16 16  0  0  0  0  0  0  0  0999 V2000
   36.0450   41.5880   23.1910 O   0  0  0  0  0  0  0  0  0  0  0  0
   34.6280   39.5550   23.9840 C   0  0  0  0  0  0  0  0  0  0  0  0
   35.2510   38.7680   26.4750 C   0  0  0  0  0  0  0  0  0  0  0  0
   35.8720   42.4470   25.7640 C   0  0  0  0  0  0  0  0  0  0  0  0
   36.1600   41.0350   25.3780 C   0  0  0  0  0  0  0  0  0  0  0  0
   34.5310   38.6290   22.0160 O   0  0  0  0  0  0  0  0  0  0  0  0
   33.4660   39.0490   24.2800 C   0  0  0  0  0  0  0  0  0  0  0  0
   35.1120   40.7400   19.8620 O   0  0  0  0  0  0  0  0  0  0  0  0
   36.0620   41.2760   20.6840 P   0  0  0  0  0  0  0  0  0  0  0  0
   37.0610   41.1720   24.1830 C   0  0  0  0  0  0  0  0  0  0  0  0
   35.0230   39.9130   25.4120 C   0  0  0  0  0  0  0  0  0  0  0  0
   35.6070   40.7240   22.2590 C   0  0  0  0  0  0  0  0  0  0  0  0
   37.7670   40.0510   23.5610 C   0  0  0  0  0  0  0  0  0  0  0  0
   36.7050   42.5230   20.3720 O   0  0  0  0  0  0  0  0  0  0  0  0
   37.3070   40.3360   20.6130 O   0  0  0  0  0  0  0  0  0  0  0  0
   35.2200   39.4150   22.6740 C   0  0  0  0  0  0  0  0  0  0  0  0
  1 10  1  0
  2  7  2  0
  2 11  1  0
  5 11  1  0
  5  4  1  0
  8  9  2  0
 10 13  1  0
 10  5  1  0
 11  3  1  0
 12  9  1  0
 12 16  1  0
 12  1  1  0
 14  9  1  0
 15  9  1  0
 16  6  1  0
 16  2  1  0
M  END
$$$$

     RDKit          3D

  4  3  0  0  0  0  0  0  0  0999 V2000
   36.4600   40.1210   20.8390 N   0  0  0  0  0  0  0  0  0  0  0  0
   38.2970   40.4530   23.7620 C   0  0  0  0  0  0  0  0  0  0  0  0
   37.2410   40.0830   23.1820 C   0  0  0  0  0  0  0  0  0  0  0  0
   36.0500   39.9300   22.2300 C   0  0  0  0  0  0  0  0  0  0  0  0
  1  4  1  0
  3  2  3  0
  4  3  1  0
M  END
$$$$

     RDKit          3D

 18 18  0  0  0  0  0  0  0  0999 V2000
   35.0560   39.1820   24.4290 C   0  0  0  0  0  0  0  0  0  0  0  0
   32.8800   37.7050   23.0500 C   0  0  0  0  0  0  0  0  0  0  0  0
   36.5070   40.2920   23.9280 O   0  0  0  0  0  0  0  0  0  0  0  0
   36.0830   39.9200   25.2430 C   0  0  0  0  0  0  0  0  0  0  0  0
   39.2070   41.8720   23.7990 C   0  0  0  0  0  0  0  0  0  0  0  0
   35.0040   41.9290   24.1850 O   0  0  0  0  0  0  0  0  0  0  0  0
   33.6000   38.5900   22.5640 N   0  0  0  0  0  0  0  0  0  0  0  0
   34.4520   41.3970   21.7510 C   0  0  0  0  0  0  0  0  0  0  0  0
   36.8520   38.9350   26.0230 O   0  0  0  0  0  0  0  0  0  0  0  0
   36.5290   41.8220   23.9640 C   0  0  0  0  0  0  0  0  0  0  0  0
   37.9680   41.6870   24.7390 C   0  0  0  0  0  0  0  0  0  0  0  0
   36.2070   37.9140   26.8140 C   0  0  0  0  0  0  0  0  0  0  0  0
   38.7440   40.9510   25.8140 O   0  0  0  0  0  0  0  0  0  0  0  0
   39.4350   40.4900   23.2900 O   0  0  0  0  0  0  0  0  0  0  0  0
   34.7110   42.5710   21.5160 O   0  0  0  0  0  0  0  0  0  0  0  0
   34.3910   40.5750   20.7900 O   0  0  0  0  0  0  0  0  0  0  0  0
   34.3620   40.9760   23.1600 C   0  0  0  0  0  0  0  0  0  0  0  0
   34.5720   39.4690   23.0830 C   0  0  0  0  0  0  0  0  0  0  0  0
  1  4  1  0
  3 10  1  0
  3  4  1  0
  4  9  1  0
  5 11  1  0
  7  2  2  0
  9 12  1  0
 10  6  1  0
 10 11  1  0
 11 13  1  0
 14  5  1  0
 15  8  1  0
 16  8  2  0
 17  8  1  0
 17  6  1  0
 18  7  1  0
 18 17  1  0
 18  1  1  0
M  END
$$$$

     RDKit          3D

  9  8  0  0  0  0  0  0  0  0999 V2000
   36.5410   41.0810   23.3310 C   0  0  0  0  0  0  0  0  0  0  0  0
   37.9320   40.6130   23.2920 O   0  0  0  0  0  0  0  0  0  0  0  0
   36.6450   41.4230   26.4980 O   0  0  0  0  0  0  0  0  0  0  0  0
   36.4020   39.9540   21.2410 C   0  0  0  0  0  0  0  0  0  0  0  0
   35.9730   40.3930   24.4960 C   0  0  0  0  0  0  0  0  0  0  0  0
   35.6950   40.9710   22.0980 C   0  0  0  0  0  0  0  0  0  0  0  0
   34.3750   41.5100   21.7630 C   0  0  0  0  0  0  0  0  0  0  0  0
   34.0800   41.2350   22.9320 C   0  0  0  0  0  0  0  0  0  0  0  0
   36.7220   40.4200   25.3760 C   0  0  0  0  0  0  0  0  0  0  0  0
  1  2  1  0
  1  5  1  0
  5  9  1  0
  6  4  1  0
  6  1  1  0
  7  6  1  0
  7  8  1  0
  9  3  1  0
M  END
$$$$

     RDKit          3D

 22 24  0  0  0  0  0  0  0  0999 V2000
   32.2820   40.3360   24.2750 C   0  0  0  0  0  0  0  0  0  0  0  0
   39.0780   42.6750   23.1560 C   0  0  0  0  0  0  0  0  0  0  0  0
   38.3340   40.8820   25.3050 N   0  0  0  0  0  0  0  0  0  0  0  0
   34.4200   39.2500   23.7010 C   0  0  0  0  0  0  0  0  0  0  0  0
   32.2750   38.2380   22.9320 C   0  0  0  0  0  0  0  0  0  0  0  0
   36.9730   39.2730   22.0520 O   0  0  0  0  0  0  0  0  0  0  0  0
   40.0020   41.8450   23.8890 O   0  0  0  0  0  0  0  0  0  0  0  0
   37.5770   40.8420   24.0140 C   0  0  0  0  0  0  0  0  0  0  0  0
   33.7760   40.2920   24.4060 C   0  0  0  0  0  0  0  0  0  0  0  0
   38.0010   40.0870   22.6880 C   0  0  0  0  0  0  0  0  0  0  0  0
   30.2260   39.7090   23.2060 O   0  0  0  0  0  0  0  0  0  0  0  0
   36.2700   41.9570   27.0420 O   0  0  0  0  0  0  0  0  0  0  0  0
   36.2150   40.5030   24.3390 C   0  0  0  0  0  0  0  0  0  0  0  0
   35.7580   39.3400   23.9100 N   0  0  0  0  0  0  0  0  0  0  0  0
   39.4950   41.4070   25.1810 C   0  0  0  0  0  0  0  0  0  0  0  0
   35.4270   40.9360   26.5600 N   0  0  0  0  0  0  0  0  0  0  0  0
   31.6760   37.1810   22.3490 N   0  0  0  0  0  0  0  0  0  0  0  0
   31.6020   39.5040   23.4820 C   0  0  0  0  0  0  0  0  0  0  0  0
   35.0600   40.9670   25.1700 C   0  0  0  0  0  0  0  0  0  0  0  0
   37.6540   42.3560   23.7100 C   0  0  0  0  0  0  0  0  0  0  0  0
   32.4340   36.1330   22.2490 O   0  0  0  0  0  0  0  0  0  0  0  0
   33.7250   38.3720   22.8570 C   0  0  0  0  0  0  0  0  0  0  0  0
  1  9  1  0
  2 20  1  0
  2  7  1  0
  4 14  1  0
  4  9  2  0
  5 18  1  0
  6 10  1  0
  7 15  1  0
  8 10  1  0
  8 13  1  0
  8  3  1  0
  9 19  1  0
 11 18  1  0
 13 14  1  0
 13 19  1  0
 15  3  1  0
 16 12  1  0
 17  5  1  0
 18  1  2  0
 19 16  1  0
 20  8  1  0
 21 17  1  0
 22  5  2  0
 22  4  1  0
M  END
$$$$

     RDKit          3D

 16 17  0  0  0  0  0  0  0  0999 V2000
   39.1750   41.0350   25.7900 C   0  0  0  0  0  0  0  0  0  0  0  0
   34.2960   42.0180   22.2750 C   0  0  0  0  0  0  0  0  0  0  0  0
   34.6340   40.4970   24.5570 C   0  0  0  0  0  0  0  0  0  0  0  0
   34.8970   39.7530   25.9100 C   0  0  0  0  0  0  0  0  0  0  0  0
   35.6010   40.5740   26.8540 N   0  0  0  0  0  0  0  0  0  0  0  0
   34.5460   37.5630   25.2270 F   0  0  0  0  0  0  0  0  0  0  0  0
   37.1710   40.7620   24.2810 N   0  0  0  0  0  0  0  0  0  0  0  0
   37.8550   38.7350   25.9890 C   0  0  0  0  0  0  0  0  0  0  0  0
   33.4900   42.5730   22.9130 O   0  0  0  0  0  0  0  0  0  0  0  0
   35.5910   40.6750   23.5530 C   0  0  0  0  0  0  0  0  0  0  0  0
   35.2240   37.7190   27.2540 F   0  0  0  0  0  0  0  0  0  0  0  0
   35.3440   38.2530   25.9780 C   0  0  0  0  0  0  0  0  0  0  0  0
   35.8050   41.3900   22.3800 N   0  0  0  0  0  0  0  0  0  0  0  0
   36.6200   37.9470   25.5170 N   0  0  0  0  0  0  0  0  0  0  0  0
   35.4160   42.1130   21.2810 C   0  0  0  0  0  0  0  0  0  0  0  0
   38.0940   40.0590   25.2730 C   0  0  0  0  0  0  0  0  0  0  0  0
  2 13  1  0
  2  9  1  0
  3  4  1  0
  4 12  1  0
  4  5  1  0
  6 12  1  0
  7 16  1  0
 10  7  1  0
 10  3  1  0
 12 11  1  0
 13 15  1  0
 13 10  1  0
 14 12  1  0
 14  8  1  0
 15  2  1  0
 16  1  1  0
 16  8  2  0
M  END
$$$$

     RDKit          3D

 23 25  0  0  0  0  0  0  0  0999 V2000
   30.4160   38.0440   20.0630 C   0  0  0  0  0  0  0  0  0  0  0  0
   30.6510   36.9280   22.1810 C   0  0  0  0  0  0  0  0  0  0  0  0
   38.2970   40.5390   22.2310 O   0  0  0  0  0  0  0  0  0  0  0  0
   37.8260   40.7430   25.4020 O   0  0  0  0  0  0  0  0  0  0  0  0
   41.2680   42.3840   24.3280 O   0  0  0  0  0  0  0  0  0  0  0  0
   30.1490   36.9930   20.8880 C   0  0  0  0  0  0  0  0  0  0  0  0
   31.5590   37.8690   22.6130 C   0  0  0  0  0  0  0  0  0  0  0  0
   35.8700   40.9950   24.1610 C   0  0  0  0  0  0  0  0  0  0  0  0
   31.9260   38.8940   21.7440 C   0  0  0  0  0  0  0  0  0  0  0  0
   40.0350   41.5890   24.3650 C   0  0  0  0  0  0  0  0  0  0  0  0
   38.4770   43.2770   23.1290 O   0  0  0  0  0  0  0  0  0  0  0  0
   38.1480   41.1880   23.2600 C   0  0  0  0  0  0  0  0  0  0  0  0
   36.5180   40.2380   24.9370 C   0  0  0  0  0  0  0  0  0  0  0  0
   38.4770   43.5840   24.5930 C   0  0  0  0  0  0  0  0  0  0  0  0
   34.1050   39.2120   23.1250 C   0  0  0  0  0  0  0  0  0  0  0  0
   33.0500   39.8420   22.1190 C   0  0  0  0  0  0  0  0  0  0  0  0
   34.3720   40.5040   23.7390 C   0  0  0  0  0  0  0  0  0  0  0  0
   38.6140   43.2980   25.9520 O   0  0  0  0  0  0  0  0  0  0  0  0
   36.5910   41.8880   23.3120 O   0  0  0  0  0  0  0  0  0  0  0  0
   32.8660   41.2040   22.4290 O   0  0  0  0  0  0  0  0  0  0  0  0
   34.2610   41.3780   22.5980 C   0  0  0  0  0  0  0  0  0  0  0  0
   31.3120   39.0780   20.5320 C   0  0  0  0  0  0  0  0  0  0  0  0
   38.9940   42.3250   23.7710 C   0  0  0  0  0  0  0  0  0  0  0  0
  1 22  2  0
  1  6  1  0
  2  7  1  0
  5 10  1  0
  6  2  2  0
  8 13  1  0
  9  7  2  0
 11 23  1  0
 11 14  1  0
 12  3  1  0
 12 19  1  0
 12 23  1  0
 13  4  1  0
 14 18  1  0
 15 17  1  0
 16  9  1  0
 16 20  1  0
 16 15  1  0
 17  8  1  0
 19  8  1  0
 20 21  1  0
 21 17  1  0
 22  9  1  0
 23 10  1  0
 23 14  1  0
M  END
$$$$

     RDKit          3D

 10  9  0  0  0  0  0  0  0  0999 V2000
   36.4300   40.3950   21.1590 C   0  0  0  0  0  0  0  0  0  0  0  0
   38.9360   42.7510   23.9450 O   0  0  0  0  0  0  0  0  0  0  0  0
   38.3000   41.8510   26.2470 C   0  0  0  0  0  0  0  0  0  0  0  0
   35.5040   39.9320   24.5740 O   0  0  0  0  0  0  0  0  0  0  0  0
   35.9240   39.6500   22.2970 C   0  0  0  0  0  0  0  0  0  0  0  0
   34.5900   40.1910   22.0510 O   0  0  0  0  0  0  0  0  0  0  0  0
   36.4210   42.7790   24.6690 O   0  0  0  0  0  0  0  0  0  0  0  0
   37.7440   42.1270   24.6870 P   0  0  0  0  0  0  0  0  0  0  0  0
   37.6730   40.8060   24.0820 O   0  0  0  0  0  0  0  0  0  0  0  0
   36.4930   40.2490   23.5590 C   0  0  0  0  0  0  0  0  0  0  0  0
  2  8  2  0
  5  1  1  0
  5 10  1  0
  6  5  1  0
  7  8  1  0
  8  3  1  0
  9  8  1  0
 10  9  1  0
 10  4  2  0
M  END
$$$$

     RDKit          3D

 17 16  0  0  0  0  0  0  0  0999 V2000
   33.0310   38.0070   21.9030 O   0  0  0  0  0  0  0  0  0  0  0  0
   35.8650   39.7410   24.5340 N   0  0  0  0  0  0  0  0  0  0  0  0
   33.3390   41.8770   23.4700 C   0  0  0  0  0  0  0  0  0  0  0  0
   32.9850   39.8030   24.5290 C   0  0  0  0  0  0  0  0  0  0  0  0
   34.6230   41.6170   23.5630 O   0  0  0  0  0  0  0  0  0  0  0  0
   35.9090   41.0470   26.4930 O   0  0  0  0  0  0  0  0  0  0  0  0
   33.0420   42.9090   22.8710 O   0  0  0  0  0  0  0  0  0  0  0  0
   32.5230   41.0300   24.3520 C   0  0  0  0  0  0  0  0  0  0  0  0
   36.9480   38.8310   26.2230 C   0  0  0  0  0  0  0  0  0  0  0  0
   37.3110   42.3260   20.6720 C   0  0  0  0  0  0  0  0  0  0  0  0
   35.5860   40.8490   23.6570 C   0  0  0  0  0  0  0  0  0  0  0  0
   36.7040   41.1930   22.6900 C   0  0  0  0  0  0  0  0  0  0  0  0
   33.9170   38.1580   22.9320 C   0  0  0  0  0  0  0  0  0  0  0  0
   35.7890   40.5490   20.6020 O   0  0  0  0  0  0  0  0  0  0  0  0
   36.1800   39.9810   25.7400 C   0  0  0  0  0  0  0  0  0  0  0  0
   36.1730   41.6880   21.3750 C   0  0  0  0  0  0  0  0  0  0  0  0
   33.6790   39.4770   23.5540 C   0  0  0  0  0  0  0  0  0  0  0  0
  1 13  1  0
  2 15  1  0
  3  5  1  0
  3  8  1  0
  5 11  1  0
  7  3  2  0
  8  4  1  0
 11 12  1  0
 11  2  1  0
 13 17  1  0
 14 16  1  0
 15  9  1  0
 15  6  2  0
 16 10  1  0
 16 12  1  0
 17  4  1  0
M  END
$$$$

     RDKit          3D

 16 18  0  0  0  0  0  0  0  0999 V2000
   39.9190   42.9550   24.5470 C   0  0  0  0  0  0  0  0  0  0  0  0
   34.3690   40.7210   22.0150 C   0  0  0  0  0  0  0  0  0  0  0  0
   37.0550   40.6360   23.5230 N   0  0  0  0  0  0  0  0  0  0  0  0
   40.4650   42.8770   25.6450 O   0  0  0  0  0  0  0  0  0  0  0  0
   36.1820   41.0480   24.6390 C   0  0  0  0  0  0  0  0  0  0  0  0
   38.5240   42.3730   24.3470 C   0  0  0  0  0  0  0  0  0  0  0  0
   40.4750   43.5080   23.5800 O   0  0  0  0  0  0  0  0  0  0  0  0
   33.5220   41.2140   23.2400 C   0  0  0  0  0  0  0  0  0  0  0  0
   38.3880   40.9080   24.0130 C   0  0  0  0  0  0  0  0  0  0  0  0
   32.2880   40.1930   22.9410 C   0  0  0  0  0  0  0  0  0  0  0  0
   32.2650   41.8580   23.0380 C   0  0  0  0  0  0  0  0  0  0  0  0
   35.5730   39.7960   21.6490 C   0  0  0  0  0  0  0  0  0  0  0  0
   37.0230   40.7700   25.8910 C   0  0  0  0  0  0  0  0  0  0  0  0
   36.8950   40.4660   22.0590 C   0  0  0  0  0  0  0  0  0  0  0  0
   31.3060   41.0270   23.1860 C   0  0  0  0  0  0  0  0  0  0  0  0
   38.2480   40.1480   25.2850 C   0  0  0  0  0  0  0  0  0  0  0  0
  1  4  1  0
  3  9  1  0
  3  5  1  0
  5 13  1  0
  6  1  1  0
  7  1  2  0
  8  2  1  0
  9  6  1  0
  9 16  1  0
 10 11  1  0
 10 15  1  0
 10  8  1  0
 11 15  1  0
 11  8  1  0
 12  2  1  0
 12 14  1  0
 14  3  1  0
 16 13  1  0
M  END
$$$$

     RDKit          3D

  8  7  0  0  0  0  0  0  0  0999 V2000
   36.4480   43.2160   22.1640 C   0  0  0  0  0  0  0  0  0  0  0  0
   37.8660   40.9310   26.4790 O   0  0  0  0  0  0  0  0  0  0  0  0
   39.9150   40.7500   25.2960 O   0  0  0  0  0  0  0  0  0  0  0  0
   37.2400   41.8610   24.2950 C   0  0  0  0  0  0  0  0  0  0  0  0
   37.9100   40.8680   23.9620 C   0  0  0  0  0  0  0  0  0  0  0  0
   35.7780   42.5990   23.4880 S   0  0  0  0  0  0  0  0  0  0  0  0
   38.5150   40.4060   25.2700 C   0  0  0  0  0  0  0  0  0  0  0  0
   35.7170   43.8390   24.6850 N   0  0  0  0  0  0  0  0  0  0  0  0
  5  4  1  0
  5  7  1  0
  6  1  1  0
  6  4  1  0
  6  8  1  0
  7  3  1  0
  7  2  1  0
M  END
$$$$

     RDKit          3D

 10 10  0  0  0  0  0  0  0  0999 V2000
   36.6400   44.0510   21.1590 O   0  0  0  0  0  0  0  0  0  0  0  0
   34.7690   40.1110   21.2820 O   0  0  0  0  0  0  0  0  0  0  0  0
   36.7590   40.4020   22.7000 C   0  0  0  0  0  0  0  0  0  0  0  0
   37.5680   41.3050   23.1160 C   0  0  0  0  0  0  0  0  0  0  0  0
   37.6570   42.6640   22.8750 C   0  0  0  0  0  0  0  0  0  0  0  0
   37.0170   39.2000   22.5820 O   0  0  0  0  0  0  0  0  0  0  0  0
   35.5590   42.4000   22.5790 O   0  0  0  0  0  0  0  0  0  0  0  0
   35.5620   41.0210   21.9650 C   0  0  0  0  0  0  0  0  0  0  0  0
   38.8060   43.2090   22.5670 O   0  0  0  0  0  0  0  0  0  0  0  0
   36.3780   43.3270   22.2830 C   0  0  0  0  0  0  0  0  0  0  0  0
  2  8  2  0
  3  4  1  0
  5  9  1  0
  5  4  1  0
  6  3  2  0
  8  7  1  0
  8  3  1  0
 10  1  1  0
 10  7  1  0
 10  5  1  0
M  END
$$$$

     RDKit          3D

  9  8  0  0  0  0  0  0  0  0999 V2000
   38.2570   39.9610   24.3230 O   0  0  0  0  0  0  0  0  0  0  0  0
   37.1300   40.1900   23.8920 C   0  0  0  0  0  0  0  0  0  0  0  0
   34.7800   42.9140   23.3380 O   0  0  0  0  0  0  0  0  0  0  0  0
   35.6930   42.0500   23.2210 C   0  0  0  0  0  0  0  0  0  0  0  0
   36.5580   42.1540   22.2540 O   0  0  0  0  0  0  0  0  0  0  0  0
   36.2210   41.2690   24.4780 C   0  0  0  0  0  0  0  0  0  0  0  0
   36.9710   42.2700   25.3870 C   0  0  0  0  0  0  0  0  0  0  0  0
   35.4270   40.3740   25.3960 O   0  0  0  0  0  0  0  0  0  0  0  0
   36.4070   39.3040   22.8650 C   0  0  0  0  0  0  0  0  0  0  0  0
  2  1  2  0
  2  6  1  0
  4  3  1  0
  4  6  1  0
  5  4  2  0
  6  7  1  0
  6  8  1  0
  9  2  1  0
M  END
$$$$

     RDKit          3D

  9  8  0  0  0  0  0  0  0  0999 V2000
   36.5250   45.4520   23.9190 O   0  0  0  0  0  0  0  0  0  0  0  0
   37.1590   41.1670   22.6310 C   0  0  0  0  0  0  0  0  0  0  0  0
   35.5510   42.5630   23.3110 C   0  0  0  0  0  0  0  0  0  0  0  0
   34.2110   45.6990   23.9000 O   0  0  0  0  0  0  0  0  0  0  0  0
   38.2670   41.0000   21.9960 O   0  0  0  0  0  0  0  0  0  0  0  0
   37.0060   42.6080   23.2640 C   0  0  0  0  0  0  0  0  0  0  0  0
   36.3580   40.3190   22.7160 O   0  0  0  0  0  0  0  0  0  0  0  0
   35.2220   45.1260   23.5420 C   0  0  0  0  0  0  0  0  0  0  0  0
   34.6720   43.5330   23.4110 C   0  0  0  0  0  0  0  0  0  0  0  0
  2  7  1  0
  2  6  1  0
  3  9  2  3
  5  2  2  0
  6  3  1  0
  8  4  2  0
  8  1  1  0
  9  8  1  0
M  END
$$$$

     RDKit          3D

 17 17  0  0  0  0  0  0  0  0999 V2000
   34.3940   41.5090   23.2550 C   0  0  0  0  0  0  0  0  0  0  0  0
   36.4430   40.2280   20.0920 C   0  0  0  0  0  0  0  0  0  0  0  0
   36.1480   39.6990   22.4780 C   0  0  0  0  0  0  0  0  0  0  0  0
   32.2130   40.8180   24.0400 C   0  0  0  0  0  0  0  0  0  0  0  0
   33.8810   39.1860   23.3960 C   0  0  0  0  0  0  0  0  0  0  0  0
   32.6200   39.5030   23.8720 C   0  0  0  0  0  0  0  0  0  0  0  0
   37.2010   39.7030   23.6150 C   0  0  0  0  0  0  0  0  0  0  0  0
   36.2860   40.4990   26.5840 O   0  0  0  0  0  0  0  0  0  0  0  0
   36.7100   40.5600   21.4740 O   0  0  0  0  0  0  0  0  0  0  0  0
   33.0980   41.8220   23.6830 C   0  0  0  0  0  0  0  0  0  0  0  0
   38.8150   41.3190   24.5450 N   0  0  0  0  0  0  0  0  0  0  0  0
   34.7980   40.1820   23.0290 C   0  0  0  0  0  0  0  0  0  0  0  0
   36.4690   41.9410   24.6230 C   0  0  0  0  0  0  0  0  0  0  0  0
   34.2110   37.8690   23.2340 O   0  0  0  0  0  0  0  0  0  0  0  0
   36.3500   41.6810   26.1460 C   0  0  0  0  0  0  0  0  0  0  0  0
   37.5620   41.1780   23.8850 C   0  0  0  0  0  0  0  0  0  0  0  0
   36.2030   42.6770   26.9050 O   0  0  0  0  0  0  0  0  0  0  0  0
  1 10  1  0
  2  9  1  0
  3 12  1  0
  3  7  1  0
  5  6  2  0
  6  4  1  0
  7 16  1  0
  9  3  1  0
 10  4  2  0
 12  1  2  0
 12  5  1  0
 13 15  1  0
 14  5  1  0
 15  8  2  0
 15 17  1  0
 16 11  1  0
 16 13  1  0
M  END
$$$$

     RDKit          3D

 10  9  0  0  0  0  0  0  0  0999 V2000
   34.1250   43.7730   22.2190 O   0  0  0  0  0  0  0  0  0  0  0  0
   35.7940   41.9840   23.5040 C   0  0  0  0  0  0  0  0  0  0  0  0
   32.5390   42.9990   22.7460 O   0  0  0  0  0  0  0  0  0  0  0  0
   38.5320   41.3820   23.9260 C   0  0  0  0  0  0  0  0  0  0  0  0
   35.3220   42.0780   24.8190 O   0  0  0  0  0  0  0  0  0  0  0  0
   39.6050   40.5800   23.1590 N   0  0  0  0  0  0  0  0  0  0  0  0
   37.1000   40.9250   23.6110 C   0  0  0  0  0  0  0  0  0  0  0  0
   33.6710   42.9860   22.6500 C   0  0  0  0  0  0  0  0  0  0  0  0
   36.9210   39.8470   23.3590 O   0  0  0  0  0  0  0  0  0  0  0  0
   34.2940   42.0210   22.9050 C   0  0  0  0  0  0  0  0  0  0  0  0
  1  8  2  0
  2  7  1  0
  2  5  1  0
  6  4  1  0
  7  4  1  0
  8  3  1  0
  8 10  1  0
  9  7  2  0
 10  2  1  0
M  END
$$$$

     RDKit          3D

 18 20  0  0  0  0  0  0  0  0999 V2000
   33.1840   39.8570   23.6000 N   0  0  0  0  0  0  0  0  0  0  0  0
   38.4950   40.3820   22.0280 O   0  0  0  0  0  0  0  0  0  0  0  0
   35.4650   38.7310   26.5690 C   0  0  0  0  0  0  0  0  0  0  0  0
   32.6820   42.2610   23.3650 O   0  0  0  0  0  0  0  0  0  0  0  0
   35.2200   40.0960   25.9320 C   0  0  0  0  0  0  0  0  0  0  0  0
   35.8070   41.1550   21.0650 C   0  0  0  0  0  0  0  0  0  0  0  0
   36.7710   38.0300   26.2910 C   0  0  0  0  0  0  0  0  0  0  0  0
   35.3310   40.2540   24.4190 C   0  0  0  0  0  0  0  0  0  0  0  0
   32.9900   39.8890   21.0190 S   0  0  0  0  0  0  0  0  0  0  0  0
   37.5580   41.6400   24.0340 C   0  0  0  0  0  0  0  0  0  0  0  0
   35.3870   41.4430   23.4150 C   0  0  0  0  0  0  0  0  0  0  0  0
   36.2510   42.4390   24.1440 C   0  0  0  0  0  0  0  0  0  0  0  0
   34.5870   39.3460   23.4950 C   0  0  0  0  0  0  0  0  0  0  0  0
   37.4580   40.4980   23.0090 C   0  0  0  0  0  0  0  0  0  0  0  0
   33.0810   38.7090   22.5690 C   0  0  0  0  0  0  0  0  0  0  0  0
   36.1470   40.7180   22.3660 N   0  0  0  0  0  0  0  0  0  0  0  0
   32.6590   40.9580   22.6500 C   0  0  0  0  0  0  0  0  0  0  0  0
   32.9110   37.5100   22.8080 O   0  0  0  0  0  0  0  0  0  0  0  0
  5  3  1  0
  6 16  1  0
  7  3  1  0
  8  5  1  0
  9 15  1  0
  9 17  1  0
 10 12  1  0
 11 12  1  0
 11  8  1  0
 13  1  1  0
 13  8  1  0
 14  2  1  0
 14 10  1  0
 15 18  1  0
 15 13  1  0
 15  1  1  0
 16 14  1  0
 16 11  1  0
 17  4  2  0
 17  1  1  0
M  END
$$$$

     RDKit          3D

 10 10  0  0  0  0  0  0  0  0999 V2000
   37.5270   41.8020   23.6270 C   0  0  0  0  0  0  0  0  0  0  0  0
   37.7590   40.8700   22.7520 C   0  0  0  0  0  0  0  0  0  0  0  0
   36.4910   41.7560   24.7980 S   0  0  0  0  0  0  0  0  0  0  0  0
   36.8060   39.7100   22.4350 C   0  0  0  0  0  0  0  0  0  0  0  0
   36.2500   43.4590   25.2680 S   0  0  0  0  0  0  0  0  0  0  0  0
   34.8320   41.0540   22.5500 C   0  0  0  0  0  0  0  0  0  0  0  0
   34.9870   41.1550   23.9600 C   0  0  0  0  0  0  0  0  0  0  0  0
   35.4230   40.1060   21.9620 C   0  0  0  0  0  0  0  0  0  0  0  0
   34.5990   39.0290   21.5130 O   0  0  0  0  0  0  0  0  0  0  0  0
   33.6320   41.4800   21.9840 O   0  0  0  0  0  0  0  0  0  0  0  0
  1  3  1  0
  2  1  1  0
  3  5  1  0
  4  2  1  0
  6 10  1  0
  6  7  1  0
  7  3  1  0
  8  9  1  0
  8  4  1  0
  8  6  1  0
M  END
$$$$

     RDKit          3D

 14 13  0  0  0  0  0  0  0  0999 V2000
   32.0620   39.9940   23.6880 O   0  0  0  0  0  0  0  0  0  0  0  0
   32.0140   42.9870   22.9380 C   0  0  0  0  0  0  0  0  0  0  0  0
   34.3380   38.8820   23.3910 C   0  0  0  0  0  0  0  0  0  0  0  0
   35.3990   40.4910   24.7870 C   0  0  0  0  0  0  0  0  0  0  0  0
   33.9420   41.5010   23.1390 C   0  0  0  0  0  0  0  0  0  0  0  0
   34.6360   39.1680   24.9210 C   0  0  0  0  0  0  0  0  0  0  0  0
   33.5900   37.6220   23.2710 O   0  0  0  0  0  0  0  0  0  0  0  0
   36.9650   40.9080   22.7110 C   0  0  0  0  0  0  0  0  0  0  0  0
   33.1350   42.3540   22.2930 O   0  0  0  0  0  0  0  0  0  0  0  0
   33.4200   40.0660   22.9910 C   0  0  0  0  0  0  0  0  0  0  0  0
   36.5180   40.1090   23.8490 N   0  0  0  0  0  0  0  0  0  0  0  0
   38.3160   41.0350   22.8130 C   0  0  0  0  0  0  0  0  0  0  0  0
   36.2110   41.5670   22.0460 O   0  0  0  0  0  0  0  0  0  0  0  0
   35.5390   38.2490   25.6140 O   0  0  0  0  0  0  0  0  0  0  0  0
  3  7  1  0
  3  6  1  0
  4  6  1  0
  6 14  1  0
  8 12  1  0
  8 11  1  0
  9  2  1  0
  9  5  1  0
 10  5  1  0
 10  3  1  0
 10  1  1  0
 11  4  1  0
 13  8  2  0
M  END
$$$$
