
     RDKit          3D

 10 10  0  0  0  0  0  0  0  0999 V2000
   36.0760   38.2790   24.3060 O   0  0  0  0  0  0  0  0  0  0  0  0
   35.7430   42.4600   24.3880 C   0  0  0  0  0  0  0  0  0  0  0  0
   38.1060   40.2530   27.5540 O   0  0  0  0  0  0  0  0  0  0  0  0
   36.2320   41.5370   25.3590 C   0  0  0  0  0  0  0  0  0  0  0  0
   37.2940   39.0020   26.9790 C   0  0  0  0  0  0  0  0  0  0  0  0
   36.8970   39.3370   24.1470 C   0  0  0  0  0  0  0  0  0  0  0  0
   37.5420   39.3600   23.0840 O   0  0  0  0  0  0  0  0  0  0  0  0
   34.8650   41.1270   25.7910 C   0  0  0  0  0  0  0  0  0  0  0  0
   38.1190   39.9380   26.2120 C   0  0  0  0  0  0  0  0  0  0  0  0
   37.1340   40.3290   25.1720 N   0  0  0  0  0  0  0  0  0  0  0  0
  2  4  1  0
  4  8  1  0
  5  3  1  0
  6  1  1  0
  6 10  1  0
  7  6  2  0
  9 10  1  0
  9  5  1  0
  9  3  1  0
 10  4  1  0
M  END
$$$$

     RDKit          3D

  9  9  0  0  0  0  0  0  0  0999 V2000
   35.8820   42.3090   24.8330 C   0  0  0  0  0  0  0  0  0  0  0  0
   35.1840   41.8350   24.3650 O   0  0  0  0  0  0  0  0  0  0  0  0
   37.1410   39.6830   27.1830 C   0  0  0  0  0  0  0  0  0  0  0  0
   36.9030   40.6690   24.4600 C   0  0  0  0  0  0  0  0  0  0  0  0
   35.9950   38.5310   24.7120 C   0  0  0  0  0  0  0  0  0  0  0  0
   35.9440   39.9670   25.1400 C   0  0  0  0  0  0  0  0  0  0  0  0
   38.1710   39.4720   26.0090 C   0  0  0  0  0  0  0  0  0  0  0  0
   35.7970   40.1550   26.6050 C   0  0  0  0  0  0  0  0  0  0  0  0
   37.8980   40.6450   25.0780 N   0  0  0  0  0  0  0  0  0  0  0  0
  2  1  1  0
  4  1  1  0
  4  9  1  0
  4  6  1  0
  6  5  1  0
  6  8  1  0
  7  3  1  0
  8  3  1  0
  9  7  1  0
M  END
$$$$

     RDKit          3D

  7  6  0  0  0  0  0  0  0  0999 V2000
   37.7840   38.8970   27.5080 O   0  0  0  0  0  0  0  0  0  0  0  0
   37.7910   43.2030   25.6030 C   0  0  0  0  0  0  0  0  0  0  0  0
   36.7900   39.7290   26.8970 C   0  0  0  0  0  0  0  0  0  0  0  0
   37.5720   40.7170   26.0500 C   0  0  0  0  0  0  0  0  0  0  0  0
   35.9410   38.8470   26.0820 N   0  0  0  0  0  0  0  0  0  0  0  0
   38.0300   39.7930   25.0840 O   0  0  0  0  0  0  0  0  0  0  0  0
   36.2990   42.0640   25.5940 S   0  0  0  0  0  0  0  0  0  0  0  0
  3  5  1  0
  3  1  1  0
  4  6  1  0
  4  3  1  0
  7  2  1  0
  7  4  1  0
M  END
$$$$

     RDKit          3D

 11 12  0  0  0  0  0  0  0  0999 V2000
   35.9390   41.3310   25.2980 N   0  0  0  0  0  0  0  0  0  0  0  0
   37.1320   39.2580   26.4700 C   0  0  0  0  0  0  0  0  0  0  0  0
   34.4140   41.0510   25.1870 C   0  0  0  0  0  0  0  0  0  0  0  0
   36.4160   40.5530   26.6190 C   0  0  0  0  0  0  0  0  0  0  0  0
   37.0990   41.8100   26.4650 C   0  0  0  0  0  0  0  0  0  0  0  0
   34.9290   43.0250   23.8460 C   0  0  0  0  0  0  0  0  0  0  0  0
   33.7390   42.1220   24.3280 C   0  0  0  0  0  0  0  0  0  0  0  0
   38.4870   41.6840   26.0530 O   0  0  0  0  0  0  0  0  0  0  0  0
   35.9570   42.6760   24.4850 C   0  0  0  0  0  0  0  0  0  0  0  0
   38.4050   39.1620   27.1860 N   0  0  0  0  0  0  0  0  0  0  0  0
   36.6220   38.2910   25.8050 O   0  0  0  0  0  0  0  0  0  0  0  0
  1  5  1  0
  1  4  1  0
  2 10  1  0
  3  1  1  0
  4  2  1  0
  5  8  1  0
  5  4  1  0
  6  7  1  0
  6  9  1  0
  7  3  1  0
  9  1  1  0
 11  2  2  0
M  END
$$$$

     RDKit          3D

 21 25  0  0  0  0  0  0  0  0999 V2000
   38.1550   41.3540   27.6420 C   0  0  0  0  0  0  0  0  0  0  0  0
   35.8080   43.0310   23.2480 C   0  0  0  0  0  0  0  0  0  0  0  0
   40.4980   41.2500   27.1430 C   0  0  0  0  0  0  0  0  0  0  0  0
   36.3270   43.5200   24.4810 C   0  0  0  0  0  0  0  0  0  0  0  0
   35.6030   38.4570   24.0730 C   0  0  0  0  0  0  0  0  0  0  0  0
   34.9250   39.8840   24.0190 C   0  0  0  0  0  0  0  0  0  0  0  0
   35.3410   39.9570   26.3550 O   0  0  0  0  0  0  0  0  0  0  0  0
   39.4090   41.1340   24.9100 C   0  0  0  0  0  0  0  0  0  0  0  0
   35.9560   41.1370   25.8940 C   0  0  0  0  0  0  0  0  0  0  0  0
   37.3460   37.9080   25.6780 O   0  0  0  0  0  0  0  0  0  0  0  0
   38.9600   41.5190   28.9370 C   0  0  0  0  0  0  0  0  0  0  0  0
   38.5040   40.1880   24.1850 C   0  0  0  0  0  0  0  0  0  0  0  0
   35.1560   41.3660   24.8360 C   0  0  0  0  0  0  0  0  0  0  0  0
   40.3810   41.6540   24.3780 O   0  0  0  0  0  0  0  0  0  0  0  0
   37.3330   40.0130   27.6840 C   0  0  0  0  0  0  0  0  0  0  0  0
   36.3540   37.9280   25.1050 C   0  0  0  0  0  0  0  0  0  0  0  0
   37.5550   39.6200   25.0970 N   0  0  0  0  0  0  0  0  0  0  0  0
   34.9590   42.8340   24.4790 C   0  0  0  0  0  0  0  0  0  0  0  0
   39.1770   41.5740   26.3930 C   0  0  0  0  0  0  0  0  0  0  0  0
   40.1350   40.6920   28.4530 O   0  0  0  0  0  0  0  0  0  0  0  0
   36.7410   39.8840   26.2480 C   0  0  0  0  0  0  0  0  0  0  0  0
  1 15  1  0
  1 11  1  0
  2 18  1  0
  2  4  1  0
  3 20  1  0
  5 16  1  0
  6  5  1  0
  6 13  1  0
  8 19  1  0
  9 21  1  0
  9  7  1  0
 12  8  1  0
 13 18  1  0
 13  9  1  0
 14  8  2  0
 16 10  1  0
 17 12  1  0
 17 10  1  0
 17 21  1  0
 18  4  1  0
 19  3  1  0
 19  1  1  0
 20 11  1  0
 21  7  1  0
 21 15  1  0
M  END
$$$$

     RDKit          3D

  5  4  0  0  0  0  0  0  0  0999 V2000
   38.4640   39.3940   27.0160 C   0  0  0  0  0  0  0  0  0  0  0  0
   36.4620   38.7740   26.0860 O   0  0  0  0  0  0  0  0  0  0  0  0
   37.0710   41.0590   25.9150 O   0  0  0  0  0  0  0  0  0  0  0  0
   37.2570   39.6720   26.3350 C   0  0  0  0  0  0  0  0  0  0  0  0
   35.7840   41.6270   25.8990 C   0  0  0  0  0  0  0  0  0  0  0  0
  2  4  2  0
  3  4  1  0
  4  1  1  0
  5  3  1  0
M  END
$$$$

     RDKit          3D

 10 10  0  0  0  0  0  0  0  0999 V2000
   37.4310   38.1940   26.4160 O   0  0  0  0  0  0  0  0  0  0  0  0
   36.3500   41.4000   25.4010 C   0  0  0  0  0  0  0  0  0  0  0  0
   35.4420   39.2250   24.9150 O   0  0  0  0  0  0  0  0  0  0  0  0
   37.2820   42.2260   25.8540 C   0  0  0  0  0  0  0  0  0  0  0  0
   36.3200   40.0400   25.5710 C   0  0  0  0  0  0  0  0  0  0  0  0
   38.2970   41.6800   26.5610 C   0  0  0  0  0  0  0  0  0  0  0  0
   39.2850   39.8610   27.5800 O   0  0  0  0  0  0  0  0  0  0  0  0
   35.1550   42.0310   24.7180 C   0  0  0  0  0  0  0  0  0  0  0  0
   37.3600   39.5100   26.2820 C   0  0  0  0  0  0  0  0  0  0  0  0
   38.3360   40.3370   26.8080 C   0  0  0  0  0  0  0  0  0  0  0  0
  2  5  2  0
  2  4  1  0
  3  5  1  0
  4  6  2  0
  5  9  1  0
  6 10  1  0
  8  2  1  0
  9  1  1  0
  9 10  2  0
 10  7  1  0
M  END
$$$$

     RDKit          3D

 13 13  0  0  0  0  0  0  0  0999 V2000
   36.1710   38.5240   26.1520 O   0  0  0  0  0  0  0  0  0  0  0  0
   36.5670   39.8580   26.3690 C   0  0  0  0  0  0  0  0  0  0  0  0
   38.7380   40.4430   24.9810 O   0  0  0  0  0  0  0  0  0  0  0  0
   37.6750   43.4230   24.0610 O   0  0  0  0  0  0  0  0  0  0  0  0
   34.7160   41.0500   24.7470 C   0  0  0  0  0  0  0  0  0  0  0  0
   38.2450   42.2120   24.0010 C   0  0  0  0  0  0  0  0  0  0  0  0
   35.9890   41.7180   24.8410 O   0  0  0  0  0  0  0  0  0  0  0  0
   34.6650   39.8530   24.4860 O   0  0  0  0  0  0  0  0  0  0  0  0
   38.4340   41.2170   27.1400 C   0  0  0  0  0  0  0  0  0  0  0  0
   37.8700   39.7950   27.1800 C   0  0  0  0  0  0  0  0  0  0  0  0
   38.2650   41.4460   25.5270 C   0  0  0  0  0  0  0  0  0  0  0  0
   39.7990   41.2660   27.6720 O   0  0  0  0  0  0  0  0  0  0  0  0
   36.9930   40.6770   25.2330 C   0  0  0  0  0  0  0  0  0  0  0  0
  2  1  1  0
  2 10  1  0
  5  7  1  0
  6  4  1  0
  6 11  1  0
  8  5  2  0
  9 10  1  0
  9 12  1  0
 11  3  1  0
 11  9  1  0
 13  7  1  0
 13 11  1  0
 13  2  1  0
M  END
$$$$

     RDKit          3D

 13 13  0  0  0  0  0  0  0  0999 V2000
   35.5090   40.4820   25.5940 C   0  0  0  0  0  0  0  0  0  0  0  0
   39.6410   41.5880   25.6160 C   0  0  0  0  0  0  0  0  0  0  0  0
   36.9000   41.0190   25.4840 C   0  0  0  0  0  0  0  0  0  0  0  0
   40.3350   41.1310   28.4390 O   0  0  0  0  0  0  0  0  0  0  0  0
   36.3600   38.3890   25.0660 O   0  0  0  0  0  0  0  0  0  0  0  0
   36.9570   38.7040   26.2890 C   0  0  0  0  0  0  0  0  0  0  0  0
   34.4470   41.4900   25.4740 C   0  0  0  0  0  0  0  0  0  0  0  0
   35.1430   40.3890   23.2800 O   0  0  0  0  0  0  0  0  0  0  0  0
   35.4770   39.5230   24.4850 C   0  0  0  0  0  0  0  0  0  0  0  0
   38.8900   41.0010   26.5970 C   0  0  0  0  0  0  0  0  0  0  0  0
   39.2130   41.0470   27.9600 C   0  0  0  0  0  0  0  0  0  0  0  0
   37.0330   42.3590   25.9660 O   0  0  0  0  0  0  0  0  0  0  0  0
   37.8070   40.0320   26.1800 C   0  0  0  0  0  0  0  0  0  0  0  0
  1  7  1  0
  2 10  2  0
  3  1  1  0
  3 12  1  0
  3 13  1  0
  5  6  1  0
  8  9  2  0
  9  5  1  0
  9  1  1  0
 10 11  1  0
 11  4  2  0
 13  6  1  0
 13 10  1  0
M  END
$$$$

     RDKit          3D

  5  4  0  0  0  0  0  0  0  0999 V2000
   36.3160   38.6370   25.2030 O   0  0  0  0  0  0  0  0  0  0  0  0
   37.7710   38.8890   26.7820 O   0  0  0  0  0  0  0  0  0  0  0  0
   36.5760   40.9000   26.1370 C   0  0  0  0  0  0  0  0  0  0  0  0
   36.8440   39.4210   25.9830 C   0  0  0  0  0  0  0  0  0  0  0  0
   35.1920   41.2230   25.9090 C   0  0  0  0  0  0  0  0  0  0  0  0
  1  4  2  0
  4  3  1  0
  4  2  1  0
  5  3  1  0
M  END
$$$$

     RDKit          3D

  5  4  0  0  0  0  0  0  0  0999 V2000
   37.0300   39.9570   26.2940 C   0  0  0  0  0  0  0  0  0  0  0  0
   36.4220   39.2220   27.0940 O   0  0  0  0  0  0  0  0  0  0  0  0
   39.1810   40.2790   24.9000 N   0  0  0  0  0  0  0  0  0  0  0  0
   36.6090   40.9770   25.7410 O   0  0  0  0  0  0  0  0  0  0  0  0
   38.4980   39.6050   26.0030 C   0  0  0  0  0  0  0  0  0  0  0  0
  1  2  1  0
  3  5  1  0
  4  1  2  0
  5  1  1  0
M  END
$$$$

     RDKit          3D

 11 11  0  0  0  0  0  0  0  0999 V2000
   38.8010   41.5690   26.7610 O   0  0  0  0  0  0  0  0  0  0  0  0
   38.1050   39.7000   25.5610 C   0  0  0  0  0  0  0  0  0  0  0  0
   36.2080   39.4270   23.9660 O   0  0  0  0  0  0  0  0  0  0  0  0
   34.9220   39.8310   23.5190 C   0  0  0  0  0  0  0  0  0  0  0  0
   34.1960   39.5180   22.6410 O   0  0  0  0  0  0  0  0  0  0  0  0
   34.3370   40.7830   24.2680 C   0  0  0  0  0  0  0  0  0  0  0  0
   35.7770   40.7650   26.0410 C   0  0  0  0  0  0  0  0  0  0  0  0
   34.5880   41.2650   25.3760 C   0  0  0  0  0  0  0  0  0  0  0  0
   38.7070   39.5690   27.7810 N   0  0  0  0  0  0  0  0  0  0  0  0
   36.6300   39.9930   25.1850 C   0  0  0  0  0  0  0  0  0  0  0  0
   38.5690   40.3900   26.7650 C   0  0  0  0  0  0  0  0  0  0  0  0
  1 11  2  0
  2 11  1  0
  3 10  1  0
  4  3  1  0
  4  6  1  0
  5  4  2  0
  6  8  2  0
  8  7  1  0
 10  2  1  0
 10  7  1  0
 11  9  1  0
M  END
$$$$

     RDKit          3D

 10  9  0  0  0  0  0  0  0  0999 V2000
   39.4000   41.7430   27.2760 O   0  0  0  0  0  0  0  0  0  0  0  0
   38.1120   39.5980   27.0260 O   0  0  0  0  0  0  0  0  0  0  0  0
   34.9840   40.8190   25.3040 C   0  0  0  0  0  0  0  0  0  0  0  0
   36.0330   38.5970   25.1290 O   0  0  0  0  0  0  0  0  0  0  0  0
   38.7370   40.4520   24.3030 O   0  0  0  0  0  0  0  0  0  0  0  0
   38.9790   42.2920   25.9050 C   0  0  0  0  0  0  0  0  0  0  0  0
   37.2770   40.4750   26.2670 C   0  0  0  0  0  0  0  0  0  0  0  0
   35.4570   41.9620   24.5700 O   0  0  0  0  0  0  0  0  0  0  0  0
   38.0450   41.3120   25.1930 C   0  0  0  0  0  0  0  0  0  0  0  0
   36.1780   39.8530   25.5250 C   0  0  0  0  0  0  0  0  0  0  0  0
  3 10  1  0
  6  1  1  0
  7  2  1  0
  8  3  1  0
  9  5  1  0
  9  6  1  0
  9  7  1  0
 10  4  1  0
 10  7  1  0
M  END
$$$$

     RDKit          3D

  5  4  0  0  0  0  0  0  0  0999 V2000
   36.9420   39.8290   26.9820 C   0  0  0  0  0  0  0  0  0  0  0  0
   38.3390   40.4360   27.0270 C   0  0  0  0  0  0  0  0  0  0  0  0
   39.3160   39.9030   27.5680 O   0  0  0  0  0  0  0  0  0  0  0  0
   36.6000   39.6410   25.5540 N   0  0  0  0  0  0  0  0  0  0  0  0
   38.6530   41.5320   26.5260 O   0  0  0  0  0  0  0  0  0  0  0  0
  1  2  1  0
  2  3  1  0
  4  1  1  0
  5  2  2  0
M  END
$$$$

     RDKit          3D

 13 14  0  0  0  0  0  0  0  0999 V2000
   35.7760   43.2030   24.0500 O   0  0  0  0  0  0  0  0  0  0  0  0
   37.6410   39.1620   27.8100 O   0  0  0  0  0  0  0  0  0  0  0  0
   38.0970   42.1650   24.4110 C   0  0  0  0  0  0  0  0  0  0  0  0
   36.2570   43.0890   25.4380 C   0  0  0  0  0  0  0  0  0  0  0  0
   36.9850   41.8040   25.5760 C   0  0  0  0  0  0  0  0  0  0  0  0
   37.9580   43.2450   23.6890 O   0  0  0  0  0  0  0  0  0  0  0  0
   35.8690   40.8190   25.2530 C   0  0  0  0  0  0  0  0  0  0  0  0
   35.9370   39.4800   25.6940 C   0  0  0  0  0  0  0  0  0  0  0  0
   38.7710   41.1520   24.1660 O   0  0  0  0  0  0  0  0  0  0  0  0
   37.9820   39.9470   26.6440 C   0  0  0  0  0  0  0  0  0  0  0  0
   36.5680   38.5560   24.9410 O   0  0  0  0  0  0  0  0  0  0  0  0
   37.4580   39.5150   25.3360 C   0  0  0  0  0  0  0  0  0  0  0  0
   37.4680   41.2620   26.7780 O   0  0  0  0  0  0  0  0  0  0  0  0
  1  4  1  0
  3  5  1  0
  5  4  1  0
  5 13  1  0
  6  3  2  0
  7  5  1  0
  8  7  1  0
  9  3  1  0
 10 13  1  0
 10  2  1  0
 11  8  1  0
 12 11  1  0
 12  8  1  0
 12 10  1  0
M  END
$$$$

     RDKit          3D

 14 14  0  0  0  0  0  0  0  0999 V2000
   36.4950   39.2690   25.1680 C   0  0  0  0  0  0  0  0  0  0  0  0
   36.3310   40.7270   23.4210 O   0  0  0  0  0  0  0  0  0  0  0  0
   38.1980   42.0350   25.1410 C   0  0  0  0  0  0  0  0  0  0  0  0
   38.5080   39.3060   26.8980 N   0  0  0  0  0  0  0  0  0  0  0  0
   35.4180   38.4880   22.8170 C   0  0  0  0  0  0  0  0  0  0  0  0
   39.3460   41.0810   25.5590 C   0  0  0  0  0  0  0  0  0  0  0  0
   36.6080   38.2000   25.8910 O   0  0  0  0  0  0  0  0  0  0  0  0
   40.4220   40.1950   27.3780 N   0  0  0  0  0  0  0  0  0  0  0  0
   37.0530   41.2900   24.4900 C   0  0  0  0  0  0  0  0  0  0  0  0
   36.1130   39.3820   23.8370 C   0  0  0  0  0  0  0  0  0  0  0  0
   36.7350   40.8760   27.1980 C   0  0  0  0  0  0  0  0  0  0  0  0
   34.7950   41.1950   25.8290 C   0  0  0  0  0  0  0  0  0  0  0  0
   36.2150   40.5470   25.8650 C   0  0  0  0  0  0  0  0  0  0  0  0
   39.1940   40.4060   26.8010 C   0  0  0  0  0  0  0  0  0  0  0  0
  1 13  1  0
  1  7  1  0
  2 10  1  0
  2  9  1  0
  3  6  1  0
  6 14  1  0
  9  3  1  0
  9 13  1  0
 10  5  1  0
 10  1  1  0
 12 13  1  0
 13 11  1  0
 14  4  1  0
 14  8  1  0
M  END
$$$$

     RDKit          3D

  7  6  0  0  0  0  0  0  0  0999 V2000
   38.8810   40.0180   26.4930 C   0  0  0  0  0  0  0  0  0  0  0  0
   38.7020   40.6180   27.6560 C   0  0  0  0  0  0  0  0  0  0  0  0
   36.0840   39.0380   25.6100 O   0  0  0  0  0  0  0  0  0  0  0  0
   37.4290   40.7620   24.5920 O   0  0  0  0  0  0  0  0  0  0  0  0
   36.3900   40.4470   25.8990 S   0  0  0  0  0  0  0  0  0  0  0  0
   35.4950   41.6860   26.0030 O   0  0  0  0  0  0  0  0  0  0  0  0
   37.0500   40.4170   27.6360 S   0  0  0  0  0  0  0  0  0  0  0  0
  1  2  1  0
  3  5  1  0
  4  5  1  0
  5  6  1  0
  5  7  1  0
  7  2  1  0
M  END
$$$$

     RDKit          3D

 12 12  0  0  0  0  0  0  0  0999 V2000
   37.0060   41.8130   24.5300 C   0  0  0  0  0  0  0  0  0  0  0  0
   37.5330   40.4260   26.6080 C   0  0  0  0  0  0  0  0  0  0  0  0
   36.3970   39.6040   25.9930 C   0  0  0  0  0  0  0  0  0  0  0  0
   34.4150   41.0180   24.8670 C   0  0  0  0  0  0  0  0  0  0  0  0
   38.7250   40.6590   27.5150 C   0  0  0  0  0  0  0  0  0  0  0  0
   39.1880   41.3580   24.7610 C   0  0  0  0  0  0  0  0  0  0  0  0
   36.1140   42.9020   25.0800 C   0  0  0  0  0  0  0  0  0  0  0  0
   34.6980   42.4430   24.9630 O   0  0  0  0  0  0  0  0  0  0  0  0
   36.3640   38.4180   26.2100 O   0  0  0  0  0  0  0  0  0  0  0  0
   39.6810   39.6000   27.5240 O   0  0  0  0  0  0  0  0  0  0  0  0
   37.8560   41.0720   25.3370 N   0  0  0  0  0  0  0  0  0  0  0  0
   35.5260   40.0850   25.0680 O   0  0  0  0  0  0  0  0  0  0  0  0
  1  7  1  0
  1 11  1  0
  2  5  1  0
  3  9  2  0
  3  2  1  0
  4  8  1  0
  4 12  1  0
  5 10  1  0
  6 11  1  0
  8  7  1  0
 11  2  1  0
 12  3  1  0
M  END
$$$$

     RDKit          3D

 21 22  0  0  0  0  0  0  0  0999 V2000
   40.2550   41.5160   26.4730 O   0  0  0  0  0  0  0  0  0  0  0  0
   38.1060   39.7100   26.3300 C   0  0  0  0  0  0  0  0  0  0  0  0
   38.9090   39.3550   29.0140 C   0  0  0  0  0  0  0  0  0  0  0  0
   35.2650   37.5300   23.6140 O   0  0  0  0  0  0  0  0  0  0  0  0
   37.4910   39.5840   28.4240 N   0  0  0  0  0  0  0  0  0  0  0  0
   34.9780   41.0150   25.0030 C   0  0  0  0  0  0  0  0  0  0  0  0
   31.4450   40.2520   24.3340 F   0  0  0  0  0  0  0  0  0  0  0  0
   37.5460   41.0760   26.2580 O   0  0  0  0  0  0  0  0  0  0  0  0
   32.7810   40.1520   24.4300 C   0  0  0  0  0  0  0  0  0  0  0  0
   38.3040   41.9140   27.0910 C   0  0  0  0  0  0  0  0  0  0  0  0
   33.5620   41.1530   25.0120 C   0  0  0  0  0  0  0  0  0  0  0  0
   33.3990   38.9980   23.9610 C   0  0  0  0  0  0  0  0  0  0  0  0
   37.0820   39.6880   24.0430 C   0  0  0  0  0  0  0  0  0  0  0  0
   37.2390   39.1550   27.2300 C   0  0  0  0  0  0  0  0  0  0  0  0
   38.2430   39.4500   24.8990 C   0  0  0  0  0  0  0  0  0  0  0  0
   34.7710   38.8180   24.0340 C   0  0  0  0  0  0  0  0  0  0  0  0
   40.0590   40.0110   28.1930 C   0  0  0  0  0  0  0  0  0  0  0  0
   39.5460   41.0960   27.2590 C   0  0  0  0  0  0  0  0  0  0  0  0
   32.6630   38.0370   23.3650 O   0  0  0  0  0  0  0  0  0  0  0  0
   36.4180   38.3910   26.8390 O   0  0  0  0  0  0  0  0  0  0  0  0
   35.6050   39.8680   24.4620 C   0  0  0  0  0  0  0  0  0  0  0  0
  1 18  2  0
  2 15  1  0
  2 14  1  0
  4 16  1  0
  5  3  1  0
  6 11  1  0
  7  9  1  0
  8  2  1  0
  8 10  1  0
  9 11  2  0
 10 18  1  0
 12 16  2  0
 12  9  1  0
 13 21  1  0
 13 15  1  0
 14  5  1  0
 16 21  1  0
 17  3  1  0
 18 17  1  0
 19 12  1  0
 20 14  2  0
 21  6  2  0
M  END
$$$$

     RDKit          3D

 14 13  0  0  0  0  0  0  0  0999 V2000
   38.7030   40.0070   23.9600 C   0  0  0  0  0  0  0  0  0  0  0  0
   34.6400   41.6240   24.4140 C   0  0  0  0  0  0  0  0  0  0  0  0
   36.6190   38.1430   26.3910 O   0  0  0  0  0  0  0  0  0  0  0  0
   35.4630   40.2580   26.4850 C   0  0  0  0  0  0  0  0  0  0  0  0
   36.7020   39.4000   26.6910 C   0  0  0  0  0  0  0  0  0  0  0  0
   36.9440   40.0940   24.0740 C   0  0  0  0  0  0  0  0  0  0  0  0
   37.2840   40.6060   21.8080 N   0  0  0  0  0  0  0  0  0  0  0  0
   36.1050   38.9470   23.6950 O   0  0  0  0  0  0  0  0  0  0  0  0
   35.7320   40.6860   25.0190 C   0  0  0  0  0  0  0  0  0  0  0  0
   34.5660   42.9440   24.8870 O   0  0  0  0  0  0  0  0  0  0  0  0
   37.9540   41.7530   21.1850 O   0  0  0  0  0  0  0  0  0  0  0  0
   39.2090   39.3380   23.2450 O   0  0  0  0  0  0  0  0  0  0  0  0
   37.7430   39.9210   27.1840 O   0  0  0  0  0  0  0  0  0  0  0  0
   36.6690   41.1310   22.9870 C   0  0  0  0  0  0  0  0  0  0  0  0
  1  6  1  0
  2 10  1  0
  3  5  2  0
  4  5  1  0
  5 13  1  0
  6  8  1  0
  6  9  1  0
  7 14  1  0
  9  2  1  0
  9  4  1  0
 11  7  1  0
 12  1  2  0
 14  6  1  0
M  END
$$$$
