
     RDKit          3D

 19 18  0  0  0  0  0  0  0  0999 V2000
   41.4040   34.4560   33.4170 C   0  0  0  0  0  0  0  0  0  0  0  0
   45.6210   41.4000   30.5810 S   0  0  0  0  0  0  0  0  0  0  0  0
   44.6230   39.1880   31.4580 O   0  0  0  0  0  0  0  0  0  0  0  0
   42.0180   38.4700   34.2850 O   0  0  0  0  0  0  0  0  0  0  0  0
   45.1680   36.9010   31.1830 O   0  0  0  0  0  0  0  0  0  0  0  0
   40.4730   33.6750   34.4410 C   0  0  0  0  0  0  0  0  0  0  0  0
   44.1070   37.5980   33.2200 C   0  0  0  0  0  0  0  0  0  0  0  0
   43.4550   36.2900   35.1590 O   0  0  0  0  0  0  0  0  0  0  0  0
   41.4700   33.9070   32.0390 N   0  0  0  0  0  0  0  0  0  0  0  0
   42.5870   38.4430   30.4180 O   0  0  0  0  0  0  0  0  0  0  0  0
   42.8500   38.4520   33.2530 C   0  0  0  0  0  0  0  0  0  0  0  0
   44.0770   39.0370   30.1230 C   0  0  0  0  0  0  0  0  0  0  0  0
   43.7080   36.2370   32.9720 O   0  0  0  0  0  0  0  0  0  0  0  0
   45.8360   42.8380   29.6300 C   0  0  0  0  0  0  0  0  0  0  0  0
   45.2740   40.0720   29.3430 C   0  0  0  0  0  0  0  0  0  0  0  0
   45.0850   38.0040   32.0920 C   0  0  0  0  0  0  0  0  0  0  0  0
   40.7720   35.7370   33.4340 O   0  0  0  0  0  0  0  0  0  0  0  0
   42.7490   34.4000   34.0280 N   0  0  0  0  0  0  0  0  0  0  0  0
   43.2120   35.6640   34.1380 C   0  0  0  0  0  0  0  0  0  0  0  0
  1 17  1  0
  1 18  1  0
  1  6  1  0
  3 16  1  0
  7 11  1  0
  9  1  1  0
 11  4  1  0
 12 10  2  0
 12  3  1  0
 13  7  1  0
 13 19  1  0
 14  2  1  0
 15 12  1  0
 15  2  1  0
 16  5  1  0
 16  7  1  0
 18 19  1  0
 19  8  2  0
M  END
$$$$

     RDKit          3D

 13 13  0  0  0  0  0  0  0  0999 V2000
   46.6420   38.8610   35.2430 C   0  0  0  0  0  0  0  0  0  0  0  0
   47.6030   38.9550   33.9830 C   0  0  0  0  0  0  0  0  0  0  0  0
   45.1720   39.4460   34.7130 C   0  0  0  0  0  0  0  0  0  0  0  0
   43.2760   39.1880   30.4300 O   0  0  0  0  0  0  0  0  0  0  0  0
   42.8190   37.2960   31.6580 C   0  0  0  0  0  0  0  0  0  0  0  0
   43.7540   36.5520   32.3880 C   0  0  0  0  0  0  0  0  0  0  0  0
   43.2020   38.6010   31.5280 C   0  0  0  0  0  0  0  0  0  0  0  0
   47.0280   38.1130   33.1520 C   0  0  0  0  0  0  0  0  0  0  0  0
   44.7310   38.8980   33.2700 C   0  0  0  0  0  0  0  0  0  0  0  0
   43.5940   39.2220   32.6640 N   0  0  0  0  0  0  0  0  0  0  0  0
   41.7800   36.7590   31.0320 O   0  0  0  0  0  0  0  0  0  0  0  0
   44.2230   35.6190   32.8800 O   0  0  0  0  0  0  0  0  0  0  0  0
   45.6390   38.0930   32.8250 N   0  0  0  0  0  0  0  0  0  0  0  0
  2  1  1  0
  3  1  1  0
  4  7  2  0
  5  6  2  0
  6 12  2  0
  7  5  1  0
  7 10  1  0
  8  2  1  0
  9  3  1  0
 10  9  1  0
 11  5  1  0
 13  8  1  0
 13  9  2  0
M  END
$$$$

     RDKit          3D

 21 22  0  0  0  0  0  0  0  0999 V2000
   39.4670   34.3270   34.0400 C   0  0  0  0  0  0  0  0  0  0  0  0
   42.9320   38.3440   33.3240 O   0  0  0  0  0  0  0  0  0  0  0  0
   46.2240   40.7400   30.5130 C   0  0  0  0  0  0  0  0  0  0  0  0
   42.3040   34.1940   34.9130 O   0  0  0  0  0  0  0  0  0  0  0  0
   44.7830   37.3610   32.0480 C   0  0  0  0  0  0  0  0  0  0  0  0
   44.9960   39.6830   26.7470 Br  0  0  0  0  0  0  0  0  0  0  0  0
   41.6990   35.9780   33.0010 C   0  0  0  0  0  0  0  0  0  0  0  0
   45.3800   39.4930   30.4730 C   0  0  0  0  0  0  0  0  0  0  0  0
   41.9390   33.3850   32.8220 O   0  0  0  0  0  0  0  0  0  0  0  0
   46.3260   41.7470   29.8040 C   0  0  0  0  0  0  0  0  0  0  0  0
   41.3760   34.3370   33.7480 S   0  0  0  0  0  0  0  0  0  0  0  0
   42.2590   36.5030   31.7940 N   0  0  0  0  0  0  0  0  0  0  0  0
   43.1520   35.9950   32.8620 C   0  0  0  0  0  0  0  0  0  0  0  0
   44.4610   39.6570   29.3280 C   0  0  0  0  0  0  0  0  0  0  0  0
   46.1130   36.7110   32.1420 O   0  0  0  0  0  0  0  0  0  0  0  0
   44.8850   38.7190   31.3760 C   0  0  0  0  0  0  0  0  0  0  0  0
   43.7990   38.4880   29.4050 C   0  0  0  0  0  0  0  0  0  0  0  0
   43.8370   37.2130   33.3160 C   0  0  0  0  0  0  0  0  0  0  0  0
   45.2610   41.6670   28.6060 C   0  0  0  0  0  0  0  0  0  0  0  0
   44.6490   40.4570   28.6160 C   0  0  0  0  0  0  0  0  0  0  0  0
   43.4920   37.6030   28.6970 O   0  0  0  0  0  0  0  0  0  0  0  0
  5 15  1  0
  5 18  1  0
  7 11  1  0
  8  3  1  0
  8 16  1  0
  9 11  2  0
 10  3  1  0
 11  1  1  0
 11  4  2  0
 12 13  1  0
 12  7  1  0
 13  7  1  0
 13 18  1  0
 14 17  1  0
 14  8  1  0
 16  5  1  0
 18  2  1  0
 19 20  1  0
 19 10  1  0
 20  6  1  0
 20 14  1  0
 21 17  2  0
M  END
$$$$

     RDKit          3D

 20 21  0  0  0  0  0  0  0  0999 V2000
   44.7270   37.4880   32.4290 O   0  0  0  0  0  0  0  0  0  0  0  0
   42.4420   36.0040   33.0320 N   0  0  0  0  0  0  0  0  0  0  0  0
   44.9270   41.0540   28.0860 Br  0  0  0  0  0  0  0  0  0  0  0  0
   43.3430   39.0230   33.9800 C   0  0  0  0  0  0  0  0  0  0  0  0
   42.6670   38.2500   29.6580 C   0  0  0  0  0  0  0  0  0  0  0  0
   43.5750   39.4800   31.5590 C   0  0  0  0  0  0  0  0  0  0  0  0
   44.8300   36.6610   33.4740 C   0  0  0  0  0  0  0  0  0  0  0  0
   44.0750   40.1290   29.2840 C   0  0  0  0  0  0  0  0  0  0  0  0
   46.2510   34.7180   34.2480 O   0  0  0  0  0  0  0  0  0  0  0  0
   44.5450   38.1870   33.6170 C   0  0  0  0  0  0  0  0  0  0  0  0
   43.4090   39.0580   28.8050 C   0  0  0  0  0  0  0  0  0  0  0  0
   42.1920   38.7790   34.7110 O   0  0  0  0  0  0  0  0  0  0  0  0
   41.4400   33.8590   32.7000 C   0  0  0  0  0  0  0  0  0  0  0  0
   42.7870   38.3330   31.0400 C   0  0  0  0  0  0  0  0  0  0  0  0
   41.6130   36.2690   30.8390 O   0  0  0  0  0  0  0  0  0  0  0  0
   46.2060   36.0140   33.6010 C   0  0  0  0  0  0  0  0  0  0  0  0
   41.3160   35.1780   33.4760 C   0  0  0  0  0  0  0  0  0  0  0  0
   42.3100   37.0010   31.8230 C   0  0  0  0  0  0  0  0  0  0  0  0
   44.1600   40.3650   30.6510 C   0  0  0  0  0  0  0  0  0  0  0  0
   43.6410   35.7810   33.9100 C   0  0  0  0  0  0  0  0  0  0  0  0
  1  7  1  0
  1 10  1  0
  2 17  1  0
  2 20  1  0
  3  8  1  0
  4 12  1  0
  5 14  1  0
  7 16  1  0
  7 10  1  0
  7 20  1  0
  8 19  2  0
 10  4  1  0
 11  8  1  0
 11  5  2  0
 13 17  1  0
 14  6  2  0
 14 18  1  0
 15 18  2  0
 16  9  1  0
 18  2  1  0
 19  6  1  0
M  END
$$$$

     RDKit          3D

 11 10  0  0  0  0  0  0  0  0999 V2000
   42.7200   35.5180   32.2260 N   0  0  0  0  0  0  0  0  0  0  0  0
   42.9300   38.1950   31.4960 C   0  0  0  0  0  0  0  0  0  0  0  0
   43.9380   37.8520   32.6180 C   0  0  0  0  0  0  0  0  0  0  0  0
   46.0440   36.3070   34.0890 O   0  0  0  0  0  0  0  0  0  0  0  0
   45.3630   38.3900   32.4430 C   0  0  0  0  0  0  0  0  0  0  0  0
   46.5630   37.8200   33.8490 P   0  0  0  0  0  0  0  0  0  0  0  0
   45.8490   38.7540   35.0820 O   0  0  0  0  0  0  0  0  0  0  0  0
   43.4160   38.4580   30.3620 O   0  0  0  0  0  0  0  0  0  0  0  0
   48.2200   38.0300   34.2420 O   0  0  0  0  0  0  0  0  0  0  0  0
   41.6680   38.3260   31.6270 O   0  0  0  0  0  0  0  0  0  0  0  0
   43.8150   36.3110   32.9730 C   0  0  0  0  0  0  0  0  0  0  0  0
  1 11  1  0
  2 10  1  0
  2  3  1  0
  3  5  1  0
  3 11  1  0
  5  6  1  0
  6  4  2  0
  6  9  1  0
  6  7  1  0
  8  2  2  0
M  END
$$$$

     RDKit          3D

  8  7  0  0  0  0  0  0  0  0999 V2000
   41.9980   36.9710   30.2280 N   0  0  0  0  0  0  0  0  0  0  0  0
   43.2970   38.5090   31.5120 C   0  0  0  0  0  0  0  0  0  0  0  0
   42.3860   37.3420   31.4170 C   0  0  0  0  0  0  0  0  0  0  0  0
   42.2980   37.2760   33.9120 N   0  0  0  0  0  0  0  0  0  0  0  0
   44.6630   35.4750   33.1120 N   0  0  0  0  0  0  0  0  0  0  0  0
   44.5020   36.5020   34.1550 C   0  0  0  0  0  0  0  0  0  0  0  0
   43.1280   36.5280   34.8090 C   0  0  0  0  0  0  0  0  0  0  0  0
   41.9830   36.5990   32.6860 C   0  0  0  0  0  0  0  0  0  0  0  0
  1  3  2  0
  3  2  1  0
  3  8  1  0
  4  7  1  0
  5  6  1  0
  6  7  1  0
  8  4  1  0
M  END
$$$$

     RDKit          3D

 12 13  0  0  0  0  0  0  0  0999 V2000
   44.8450   36.9010   34.7130 N   0  0  0  0  0  0  0  0  0  0  0  0
   44.2330   37.3620   33.5240 C   0  0  0  0  0  0  0  0  0  0  0  0
   44.3910   39.0680   30.6100 C   0  0  0  0  0  0  0  0  0  0  0  0
   42.0960   36.0310   33.0730 O   0  0  0  0  0  0  0  0  0  0  0  0
   43.1380   36.9020   31.1830 O   0  0  0  0  0  0  0  0  0  0  0  0
   42.7370   38.2520   35.1040 O   0  0  0  0  0  0  0  0  0  0  0  0
   43.4210   37.9920   30.4300 C   0  0  0  0  0  0  0  0  0  0  0  0
   43.8430   37.8060   34.9280 C   0  0  0  0  0  0  0  0  0  0  0  0
   43.0810   36.8810   32.7090 C   0  0  0  0  0  0  0  0  0  0  0  0
   46.3060   37.0720   34.8890 C   0  0  0  0  0  0  0  0  0  0  0  0
   42.8770   39.3280   30.8040 C   0  0  0  0  0  0  0  0  0  0  0  0
   42.3280   34.8720   32.7740 C   0  0  0  0  0  0  0  0  0  0  0  0
  1 10  1  0
  1  8  1  0
  2  9  1  0
  2  1  1  0
  2  8  1  0
  3 11  1  0
  7  3  1  0
  7 11  1  0
  7  5  1  0
  8  6  1  0
  9  5  1  0
  9  4  1  0
 12  4  1  0
M  END
$$$$

     RDKit          3D

 12 12  0  0  0  0  0  0  0  0999 V2000
   44.1420   38.7510   35.2230 O   0  0  0  0  0  0  0  0  0  0  0  0
   45.3310   38.0890   34.5810 C   0  0  0  0  0  0  0  0  0  0  0  0
   46.0490   36.9220   34.8330 O   0  0  0  0  0  0  0  0  0  0  0  0
   41.6180   37.6460   32.8180 O   0  0  0  0  0  0  0  0  0  0  0  0
   43.4220   36.1620   32.2500 C   0  0  0  0  0  0  0  0  0  0  0  0
   42.4450   35.4650   32.6320 C   0  0  0  0  0  0  0  0  0  0  0  0
   45.9470   37.3670   32.4210 O   0  0  0  0  0  0  0  0  0  0  0  0
   43.2560   36.8830   31.0230 O   0  0  0  0  0  0  0  0  0  0  0  0
   44.9030   37.9480   33.1360 C   0  0  0  0  0  0  0  0  0  0  0  0
   43.8950   36.8160   33.2430 C   0  0  0  0  0  0  0  0  0  0  0  0
   42.7170   37.8610   33.5950 C   0  0  0  0  0  0  0  0  0  0  0  0
   42.8870   38.8580   34.6400 C   0  0  0  0  0  0  0  0  0  0  0  0
  2  3  1  0
  2  1  1  0
  5  6  1  0
  8  5  1  0
  9  7  1  0
  9 10  1  0
  9  2  1  0
 10  5  1  0
 10 11  1  0
 11  4  1  0
 11 12  1  0
 12  1  1  0
M  END
$$$$

     RDKit          3D

 20 21  0  0  0  0  0  0  0  0999 V2000
   44.3390   36.4590   36.9030 O   0  0  0  0  0  0  0  0  0  0  0  0
   44.4240   39.9280   29.4400 C   0  0  0  0  0  0  0  0  0  0  0  0
   43.2560   36.0540   34.0550 C   0  0  0  0  0  0  0  0  0  0  0  0
   45.8090   40.0830   31.3830 C   0  0  0  0  0  0  0  0  0  0  0  0
   45.1300   34.9740   34.6090 O   0  0  0  0  0  0  0  0  0  0  0  0
   43.2020   36.4120   32.6380 C   0  0  0  0  0  0  0  0  0  0  0  0
   45.0360   40.6350   32.4350 O   0  0  0  0  0  0  0  0  0  0  0  0
   44.4550   37.0830   35.8590 C   0  0  0  0  0  0  0  0  0  0  0  0
   44.4510   36.9960   32.0870 C   0  0  0  0  0  0  0  0  0  0  0  0
   45.1440   39.0990   30.4610 C   0  0  0  0  0  0  0  0  0  0  0  0
   41.6690   36.6450   32.5390 C   0  0  0  0  0  0  0  0  0  0  0  0
   47.2670   36.9210   34.1010 O   0  0  0  0  0  0  0  0  0  0  0  0
   44.7890   36.3080   34.5550 C   0  0  0  0  0  0  0  0  0  0  0  0
   44.2310   38.3960   35.8120 O   0  0  0  0  0  0  0  0  0  0  0  0
   41.0570   35.4890   33.2880 C   0  0  0  0  0  0  0  0  0  0  0  0
   41.4620   37.9710   32.5990 O   0  0  0  0  0  0  0  0  0  0  0  0
   45.5280   36.4670   32.3090 O   0  0  0  0  0  0  0  0  0  0  0  0
   44.1920   38.1390   31.1010 C   0  0  0  0  0  0  0  0  0  0  0  0
   42.2300   34.8610   33.9660 C   0  0  0  0  0  0  0  0  0  0  0  0
   45.8980   37.0520   33.7590 C   0  0  0  0  0  0  0  0  0  0  0  0
  2 10  1  0
  3 19  1  0
  3 13  1  0
  4  7  1  0
  6  3  1  0
  8  1  1  0
  9 17  1  0
  9  6  1  0
 10 18  1  0
 10  4  1  0
 11 16  1  0
 11  6  1  0
 11 15  1  0
 13  5  1  0
 13  8  1  0
 14  8  2  0
 15 19  1  0
 17 20  1  0
 18  9  1  0
 20 12  1  0
 20 13  1  0
M  END
$$$$

     RDKit          3D

 14 14  0  0  0  0  0  0  0  0999 V2000
   44.3770   35.9640   32.7960 C   0  0  0  0  0  0  0  0  0  0  0  0
   42.1020   35.3710   33.2470 C   0  0  0  0  0  0  0  0  0  0  0  0
   41.7310   36.7920   33.3340 C   0  0  0  0  0  0  0  0  0  0  0  0
   40.5270   37.1860   33.5340 O   0  0  0  0  0  0  0  0  0  0  0  0
   45.6320   41.4150   32.6220 O   0  0  0  0  0  0  0  0  0  0  0  0
   42.6940   37.7290   33.1030 C   0  0  0  0  0  0  0  0  0  0  0  0
   43.3790   35.0570   33.0260 N   0  0  0  0  0  0  0  0  0  0  0  0
   45.1500   38.5990   32.3350 S   0  0  0  0  0  0  0  0  0  0  0  0
   46.3100   38.0020   31.7280 O   0  0  0  0  0  0  0  0  0  0  0  0
   41.2180   34.2990   33.3930 C   0  0  0  0  0  0  0  0  0  0  0  0
   46.1380   40.6950   33.7730 N   0  0  0  0  0  0  0  0  0  0  0  0
   44.0280   37.3340   32.7970 C   0  0  0  0  0  0  0  0  0  0  0  0
   45.6800   39.2830   33.9530 C   0  0  0  0  0  0  0  0  0  0  0  0
   44.9120   39.1540   35.1100 O   0  0  0  0  0  0  0  0  0  0  0  0
  1 12  2  0
  1  7  1  0
  2  3  1  0
  2 10  1  0
  3  4  1  0
  5 11  1  0
  6  3  2  0
  7  2  2  0
  8  9  2  0
  8 12  1  0
  8 13  1  0
 11 13  1  0
 12  6  1  0
 13 14  1  0
M  END
$$$$

     RDKit          3D

 13 15  0  0  0  0  0  0  0  0999 V2000
   44.2070   38.9640   33.2150 C   0  0  0  0  0  0  0  0  0  0  0  0
   41.7230   38.7990   30.8230 C   0  0  0  0  0  0  0  0  0  0  0  0
   44.4170   38.0280   34.0280 C   0  0  0  0  0  0  0  0  0  0  0  0
   43.0600   37.2850   33.9480 C   0  0  0  0  0  0  0  0  0  0  0  0
   43.7060   37.0530   31.4220 C   0  0  0  0  0  0  0  0  0  0  0  0
   43.2560   35.9690   34.2080 O   0  0  0  0  0  0  0  0  0  0  0  0
   43.2120   38.3660   34.4180 C   0  0  0  0  0  0  0  0  0  0  0  0
   42.8700   38.2770   31.6330 C   0  0  0  0  0  0  0  0  0  0  0  0
   44.3350   40.4410   33.4470 O   0  0  0  0  0  0  0  0  0  0  0  0
   42.6150   37.0930   32.3740 C   0  0  0  0  0  0  0  0  0  0  0  0
   43.4370   37.1100   29.7250 C   0  0  0  0  0  0  0  0  0  0  0  0
   42.6980   39.4320   35.2880 O   0  0  0  0  0  0  0  0  0  0  0  0
   45.0090   36.5650   31.8170 O   0  0  0  0  0  0  0  0  0  0  0  0
  1  9  1  0
  1  3  1  0
  1  7  1  0
  2  8  1  0
  3  7  1  0
  4  3  1  0
  4  6  1  0
  4  7  1  0
  5  8  1  0
  5 13  1  0
  5 10  1  0
  7 12  1  0
  8 10  1  0
 10  4  1  0
 11  5  1  0
M  END
$$$$

     RDKit          3D

  5  4  0  0  0  0  0  0  0  0999 V2000
   43.8960   38.6030   33.7460 O   0  0  0  0  0  0  0  0  0  0  0  0
   44.5310   38.2830   32.6060 C   0  0  0  0  0  0  0  0  0  0  0  0
   42.8050   36.6600   32.0090 O   0  0  0  0  0  0  0  0  0  0  0  0
   43.9820   37.1300   31.8170 C   0  0  0  0  0  0  0  0  0  0  0  0
   44.8530   36.7030   30.8570 N   0  0  0  0  0  0  0  0  0  0  0  0
  2  1  1  0
  4  3  2  0
  4  2  1  0
  5  4  1  0
M  END
$$$$

     RDKit          3D

  8  7  0  0  0  0  0  0  0  0999 V2000
   45.3290   37.3340   30.3480 O   0  0  0  0  0  0  0  0  0  0  0  0
   43.7160   37.0950   32.7340 C   0  0  0  0  0  0  0  0  0  0  0  0
   42.9410   38.0140   31.9090 C   0  0  0  0  0  0  0  0  0  0  0  0
   45.4400   36.7710   31.3330 C   0  0  0  0  0  0  0  0  0  0  0  0
   44.4170   36.1110   32.1170 N   0  0  0  0  0  0  0  0  0  0  0  0
   42.9600   38.9610   34.5630 S   0  0  0  0  0  0  0  0  0  0  0  0
   43.2510   37.1970   34.2180 C   0  0  0  0  0  0  0  0  0  0  0  0
   41.9260   38.0090   31.3230 N   0  0  0  0  0  0  0  0  0  0  0  0
  1  4  2  0
  2  3  1  0
  2  7  1  0
  4  5  1  0
  5  2  1  0
  7  6  1  0
  8  3  2  0
M  END
$$$$

     RDKit          3D

 10  9  0  0  0  0  0  0  0  0999 V2000
   42.1730   37.6250   31.2360 C   0  0  0  0  0  0  0  0  0  0  0  0
   43.9620   36.8650   32.8180 C   0  0  0  0  0  0  0  0  0  0  0  0
   42.9150   38.9440   33.5670 O   0  0  0  0  0  0  0  0  0  0  0  0
   43.4580   35.4850   32.8590 N   0  0  0  0  0  0  0  0  0  0  0  0
   43.3010   37.6310   35.1340 O   0  0  0  0  0  0  0  0  0  0  0  0
   44.3810   37.8630   30.6490 O   0  0  0  0  0  0  0  0  0  0  0  0
   46.0490   38.1460   32.7070 O   0  0  0  0  0  0  0  0  0  0  0  0
   43.5740   37.4840   31.4560 C   0  0  0  0  0  0  0  0  0  0  0  0
   43.2910   37.8000   33.8940 C   0  0  0  0  0  0  0  0  0  0  0  0
   45.5070   36.9370   33.0020 C   0  0  0  0  0  0  0  0  0  0  0  0
  1  8  1  0
  2  4  1  0
  2 10  1  0
  2  9  1  0
  3  9  2  0
  6  8  2  0
  7 10  1  0
  8  2  1  0
  9  5  1  0
M  END
$$$$

     RDKit          3D

  9 10  0  0  0  0  0  0  0  0999 V2000
   44.4060   38.5530   31.6500 C   0  0  0  0  0  0  0  0  0  0  0  0
   43.0990   36.6030   31.8950 O   0  0  0  0  0  0  0  0  0  0  0  0
   45.0510   36.5970   30.6080 C   0  0  0  0  0  0  0  0  0  0  0  0
   42.4620   37.8200   32.3860 C   0  0  0  0  0  0  0  0  0  0  0  0
   44.4430   37.0800   31.7530 C   0  0  0  0  0  0  0  0  0  0  0  0
   42.1070   38.8260   34.4270 O   0  0  0  0  0  0  0  0  0  0  0  0
   43.3460   38.9350   32.6460 C   0  0  0  0  0  0  0  0  0  0  0  0
   43.0250   38.1850   33.8450 C   0  0  0  0  0  0  0  0  0  0  0  0
   44.0990   37.9360   34.6530 O   0  0  0  0  0  0  0  0  0  0  0  0
  1  5  1  0
  4  2  1  0
  4  7  1  0
  4  8  1  0
  5  3  1  0
  5  2  1  0
  7  1  1  0
  7  8  1  0
  8  6  1  0
  8  9  1  0
M  END
$$$$

     RDKit          3D

 13 12  0  0  0  0  0  0  0  0999 V2000
   43.8110   35.6520   32.3740 N   0  0  0  0  0  0  0  0  0  0  0  0
   43.8830   38.0900   30.0930 S   0  0  0  0  0  0  0  0  0  0  0  0
   45.6910   40.0110   30.1970 C   0  0  0  0  0  0  0  0  0  0  0  0
   44.6300   39.3140   31.0310 C   0  0  0  0  0  0  0  0  0  0  0  0
   45.1470   37.5790   33.2230 C   0  0  0  0  0  0  0  0  0  0  0  0
   44.5890   41.1540   32.5970 O   0  0  0  0  0  0  0  0  0  0  0  0
   44.1500   39.8550   32.3700 C   0  0  0  0  0  0  0  0  0  0  0  0
   41.7060   37.0110   29.6920 O   0  0  0  0  0  0  0  0  0  0  0  0
   41.8220   37.8210   31.8020 O   0  0  0  0  0  0  0  0  0  0  0  0
   44.8360   39.1050   33.5190 C   0  0  0  0  0  0  0  0  0  0  0  0
   42.2620   37.6300   30.6280 C   0  0  0  0  0  0  0  0  0  0  0  0
   45.0250   36.4400   32.1170 C   0  0  0  0  0  0  0  0  0  0  0  0
   45.0110   36.9710   34.4480 O   0  0  0  0  0  0  0  0  0  0  0  0
  2 11  1  0
  2  4  1  0
  4  3  1  0
  4  7  1  0
  5 10  1  0
  5 13  1  0
  7  6  1  0
  7 10  1  0
  8 11  2  0
 11  9  1  0
 12  1  1  0
 12  5  1  0
M  END
$$$$

     RDKit          3D

  8  7  0  0  0  0  0  0  0  0999 V2000
   42.2720   36.7670   32.0360 O   0  0  0  0  0  0  0  0  0  0  0  0
   44.3790   36.1130   33.2540 C   0  0  0  0  0  0  0  0  0  0  0  0
   42.6980   38.8530   34.4890 O   0  0  0  0  0  0  0  0  0  0  0  0
   44.4380   39.4580   32.7330 C   0  0  0  0  0  0  0  0  0  0  0  0
   43.4270   38.4860   33.4060 C   0  0  0  0  0  0  0  0  0  0  0  0
   44.4180   36.3360   34.7790 O   0  0  0  0  0  0  0  0  0  0  0  0
   45.1680   38.5820   31.7700 O   0  0  0  0  0  0  0  0  0  0  0  0
   43.3580   37.0420   32.6240 C   0  0  0  0  0  0  0  0  0  0  0  0
  1  8  2  0
  2  6  1  0
  4  5  1  0
  5  3  1  0
  7  4  1  0
  8  2  1  0
  8  5  1  0
M  END
$$$$

     RDKit          3D

  8  7  0  0  0  0  0  0  0  0999 V2000
   43.1370   38.4300   33.4470 O   0  0  0  0  0  0  0  0  0  0  0  0
   45.9830   36.1720   33.1590 O   0  0  0  0  0  0  0  0  0  0  0  0
   42.4650   37.5040   29.7070 O   0  0  0  0  0  0  0  0  0  0  0  0
   43.7840   36.7920   31.8040 N   0  0  0  0  0  0  0  0  0  0  0  0
   42.8850   37.3220   30.9820 C   0  0  0  0  0  0  0  0  0  0  0  0
   44.0010   37.2420   33.0780 N   0  0  0  0  0  0  0  0  0  0  0  0
   45.3720   37.4540   34.8650 O   0  0  0  0  0  0  0  0  0  0  0  0
   45.1520   36.9620   33.7200 C   0  0  0  0  0  0  0  0  0  0  0  0
  2  8  2  0
  3  5  1  0
  4  6  1  0
  5  4  1  0
  6  1  1  0
  6  8  1  0
  8  7  1  0
M  END
$$$$

     RDKit          3D

 19 20  0  0  0  0  0  0  0  0999 V2000
   40.2050   34.7610   33.4690 C   0  0  0  0  0  0  0  0  0  0  0  0
   43.3760   36.7400   34.0580 C   0  0  0  0  0  0  0  0  0  0  0  0
   41.2780   33.2790   32.1250 C   0  0  0  0  0  0  0  0  0  0  0  0
   42.7810   35.9730   33.6640 C   0  0  0  0  0  0  0  0  0  0  0  0
   42.6610   34.6210   33.3470 C   0  0  0  0  0  0  0  0  0  0  0  0
   42.0200   39.5130   29.6470 O   0  0  0  0  0  0  0  0  0  0  0  0
   41.7570   37.5560   31.7270 S   0  0  0  0  0  0  0  0  0  0  0  0
   41.4090   34.1920   33.0190 C   0  0  0  0  0  0  0  0  0  0  0  0
   42.2860   32.4170   31.5070 C   0  0  0  0  0  0  0  0  0  0  0  0
   41.9060   38.0870   30.0390 C   0  0  0  0  0  0  0  0  0  0  0  0
   43.3930   37.9160   32.2140 C   0  0  0  0  0  0  0  0  0  0  0  0
   41.7300   38.5490   34.6330 O   0  0  0  0  0  0  0  0  0  0  0  0
   41.8550   37.1580   29.2760 O   0  0  0  0  0  0  0  0  0  0  0  0
   40.2580   36.1820   33.5930 N   0  0  0  0  0  0  0  0  0  0  0  0
   44.2190   39.7090   30.9080 O   0  0  0  0  0  0  0  0  0  0  0  0
   39.0040   34.2380   33.5130 O   0  0  0  0  0  0  0  0  0  0  0  0
   44.2590   38.2520   30.9130 C   0  0  0  0  0  0  0  0  0  0  0  0
   42.8840   38.1260   33.6870 C   0  0  0  0  0  0  0  0  0  0  0  0
   41.4380   36.6840   33.2780 C   0  0  0  0  0  0  0  0  0  0  0  0
  1 16  2  0
  1 14  1  0
  3  8  2  3
  4  2  1  0
  5  4  2  0
  6 10  1  0
  7 10  1  0
  7 11  1  0
  7 19  1  0
  8  5  1  0
  8  1  1  0
  9  3  1  0
 11 17  1  0
 11 18  1  0
 13 10  2  0
 15 17  1  0
 18  2  1  0
 18 12  1  0
 19 14  1  0
 19  4  1  0
M  END
$$$$

     RDKit          3D

  6  6  0  0  0  0  0  0  0  0999 V2000
   43.4210   35.6990   32.7450 C   0  0  0  0  0  0  0  0  0  0  0  0
   42.9460   37.6800   33.3130 C   0  0  0  0  0  0  0  0  0  0  0  0
   44.1280   36.6270   33.3060 N   0  0  0  0  0  0  0  0  0  0  0  0
   42.2870   37.5360   32.2010 C   0  0  0  0  0  0  0  0  0  0  0  0
   42.5800   36.2690   31.7500 N   0  0  0  0  0  0  0  0  0  0  0  0
   42.5310   38.6540   34.0860 O   0  0  0  0  0  0  0  0  0  0  0  0
  1  3  1  0
  2  6  2  0
  3  2  1  0
  4  2  1  0
  5  4  1  0
  5  1  1  0
M  END
$$$$
