
     RDKit          3D

 23 26  0  0  0  0  0  0  0  0999 V2000
   37.0220   38.4930   29.2640 C   0  0  0  0  0  0  0  0  0  0  0  0
   33.8390   48.6770   23.8220 C   0  0  0  0  0  0  0  0  0  0  0  0
   37.8780   41.8480   24.4110 O   0  0  0  0  0  0  0  0  0  0  0  0
   34.4550   47.3730   24.0680 C   0  0  0  0  0  0  0  0  0  0  0  0
   36.8230   40.6690   27.1610 C   0  0  0  0  0  0  0  0  0  0  0  0
   36.6940   46.5590   24.3220 C   0  0  0  0  0  0  0  0  0  0  0  0
   37.1520   42.5750   27.4520 O   0  0  0  0  0  0  0  0  0  0  0  0
   38.0330   36.4770   29.5750 C   0  0  0  0  0  0  0  0  0  0  0  0
   38.2480   44.9160   25.4750 C   0  0  0  0  0  0  0  0  0  0  0  0
   38.9620   36.7720   28.6540 N   0  0  0  0  0  0  0  0  0  0  0  0
   37.2860   42.3040   25.5040 C   0  0  0  0  0  0  0  0  0  0  0  0
   37.0310   37.3080   29.8750 C   0  0  0  0  0  0  0  0  0  0  0  0
   37.2780   43.8440   25.5970 N   0  0  0  0  0  0  0  0  0  0  0  0
   34.4910   49.4340   22.7480 N   0  0  0  0  0  0  0  0  0  0  0  0
   37.3840   46.1960   25.5400 C   0  0  0  0  0  0  0  0  0  0  0  0
   37.9770   38.8460   28.3010 C   0  0  0  0  0  0  0  0  0  0  0  0
   38.9320   37.9000   27.9960 C   0  0  0  0  0  0  0  0  0  0  0  0
   36.9800   41.9170   26.5850 N   0  0  0  0  0  0  0  0  0  0  0  0
   38.0380   40.0320   27.5970 N   0  0  0  0  0  0  0  0  0  0  0  0
   35.7890   47.4630   23.8690 O   0  0  0  0  0  0  0  0  0  0  0  0
   36.0420   45.6120   25.4050 C   0  0  0  0  0  0  0  0  0  0  0  0
   33.5220   48.2460   22.2130 C   0  0  0  0  0  0  0  0  0  0  0  0
   36.0780   44.1360   24.7990 C   0  0  0  0  0  0  0  0  0  0  0  0
  1 12  1  0
  2  4  1  0
  3 11  2  0
  5 19  2  3
  6 20  1  0
  6 21  1  0
  6 15  1  0
  8 12  2  0
  9 13  1  0
 10  8  1  0
 11 13  1  0
 11 18  1  0
 14  2  1  0
 15  9  1  0
 16  1  2  0
 17 16  1  0
 17 10  2  0
 18  5  1  0
 18  7  1  0
 19 16  1  0
 20  4  1  0
 21 23  1  0
 21 15  1  0
 22 14  1  0
 22  2  1  0
 23 13  1  0
M  END
$$$$

     RDKit          3D

 12 11  0  0  0  0  0  0  0  0999 V2000
   40.0660   41.6130   23.2560 C   0  0  0  0  0  0  0  0  0  0  0  0
   37.3670   40.1070   26.3840 C   0  0  0  0  0  0  0  0  0  0  0  0
   38.0130   41.8110   28.3870 C   0  0  0  0  0  0  0  0  0  0  0  0
   39.6430   40.8660   26.9480 C   0  0  0  0  0  0  0  0  0  0  0  0
   40.3790   41.4810   26.6740 O   0  0  0  0  0  0  0  0  0  0  0  0
   37.0910   41.4130   25.6280 C   0  0  0  0  0  0  0  0  0  0  0  0
   39.0920   42.1250   29.2360 O   0  0  0  0  0  0  0  0  0  0  0  0
   38.2980   40.5600   27.5700 C   0  0  0  0  0  0  0  0  0  0  0  0
   39.0790   41.4980   24.2080 O   0  0  0  0  0  0  0  0  0  0  0  0
   38.4840   42.0430   25.3610 C   0  0  0  0  0  0  0  0  0  0  0  0
   36.1430   39.5650   26.7970 O   0  0  0  0  0  0  0  0  0  0  0  0
   36.1170   41.9590   26.5390 O   0  0  0  0  0  0  0  0  0  0  0  0
  1  9  1  0
  2 11  1  0
  2  8  1  0
  3  7  1  0
  5  4  2  0
  6  2  1  0
  6 12  1  0
  8  4  1  0
  8  3  1  0
  9 10  1  0
 10  6  1  0
M  END
$$$$

     RDKit          3D

 14 14  0  0  0  0  0  0  0  0999 V2000
   37.9840   38.4450   28.7660 C   0  0  0  0  0  0  0  0  0  0  0  0
   36.5620   42.8370   24.1280 C   0  0  0  0  0  0  0  0  0  0  0  0
   37.5850   40.7560   27.8050 C   0  0  0  0  0  0  0  0  0  0  0  0
   39.0500   41.5390   25.8560 O   0  0  0  0  0  0  0  0  0  0  0  0
   39.4190   38.2340   29.0110 N   0  0  0  0  0  0  0  0  0  0  0  0
   36.9000   41.2510   26.6320 C   0  0  0  0  0  0  0  0  0  0  0  0
   37.3050   41.4990   24.1770 C   0  0  0  0  0  0  0  0  0  0  0  0
   37.4200   44.0490   24.4730 C   0  0  0  0  0  0  0  0  0  0  0  0
   36.8300   38.9010   26.5690 C   0  0  0  0  0  0  0  0  0  0  0  0
   37.8930   41.4580   25.5300 C   0  0  0  0  0  0  0  0  0  0  0  0
   36.0930   40.1480   26.1170 C   0  0  0  0  0  0  0  0  0  0  0  0
   37.8550   39.3730   27.5710 C   0  0  0  0  0  0  0  0  0  0  0  0
   37.5320   44.0970   25.8620 O   0  0  0  0  0  0  0  0  0  0  0  0
   37.8030   41.4250   28.8150 O   0  0  0  0  0  0  0  0  0  0  0  0
  1  5  1  0
  2  7  1  0
  2  8  1  0
  3 14  2  0
  6 10  1  0
  6  3  1  0
  7 10  1  0
  8 13  1  0
  9 12  1  0
 10  4  2  0
 11  9  1  0
 11  6  1  0
 12  3  1  0
 12  1  1  0
M  END
$$$$

     RDKit          3D

 19 19  0  0  0  0  0  0  0  0999 V2000
   32.2330   33.8370   28.5690 C   0  0  0  0  0  0  0  0  0  0  0  0
   31.7100   32.9550   29.6600 C   0  0  0  0  0  0  0  0  0  0  0  0
   33.7670   35.6910   28.8610 C   0  0  0  0  0  0  0  0  0  0  0  0
   37.9660   43.7120   28.5950 O   0  0  0  0  0  0  0  0  0  0  0  0
   33.6820   34.1850   28.7430 C   0  0  0  0  0  0  0  0  0  0  0  0
   38.6370   41.2660   28.3970 C   0  0  0  0  0  0  0  0  0  0  0  0
   37.4180   40.7990   27.3680 C   0  0  0  0  0  0  0  0  0  0  0  0
   39.2810   39.7990   28.5360 C   0  0  0  0  0  0  0  0  0  0  0  0
   36.3240   38.1770   27.4470 O   0  0  0  0  0  0  0  0  0  0  0  0
   38.1440   38.9170   29.0280 C   0  0  0  0  0  0  0  0  0  0  0  0
   39.3200   41.5370   29.8420 O   0  0  0  0  0  0  0  0  0  0  0  0
   36.8510   39.3880   28.0940 C   0  0  0  0  0  0  0  0  0  0  0  0
   35.5880   37.1640   28.3400 C   0  0  0  0  0  0  0  0  0  0  0  0
   38.7450   42.7940   27.8710 C   0  0  0  0  0  0  0  0  0  0  0  0
   32.8280   34.9960   31.2410 S   0  0  0  0  0  0  0  0  0  0  0  0
   36.4990   41.8390   27.0540 O   0  0  0  0  0  0  0  0  0  0  0  0
   34.6190   36.2520   27.8260 C   0  0  0  0  0  0  0  0  0  0  0  0
   34.4200   36.1950   26.6360 O   0  0  0  0  0  0  0  0  0  0  0  0
   31.9610   33.4890   31.0190 C   0  0  0  0  0  0  0  0  0  0  0  0
  1  5  1  0
  1  2  1  0
  2 19  1  0
  5  3  1  0
  6  8  1  0
  6 11  1  0
  7 16  1  0
  7 12  1  0
  7  6  1  0
  8 10  1  0
  9 13  1  0
 12  9  1  0
 12 10  1  0
 14  6  1  0
 14  4  1  0
 17 13  1  0
 17  3  1  0
 18 17  2  0
 19 15  1  0
M  END
$$$$

     RDKit          3D

  8  7  0  0  0  0  0  0  0  0999 V2000
   40.1930   41.1950   27.8700 C   0  0  0  0  0  0  0  0  0  0  0  0
   40.8320   40.0910   27.2200 O   0  0  0  0  0  0  0  0  0  0  0  0
   39.0110   42.2170   28.4730 N   0  0  0  0  0  0  0  0  0  0  0  0
   37.4880   40.5830   27.2020 C   0  0  0  0  0  0  0  0  0  0  0  0
   37.6640   41.6880   28.3180 C   0  0  0  0  0  0  0  0  0  0  0  0
   38.4560   40.1570   26.5030 O   0  0  0  0  0  0  0  0  0  0  0  0
   38.5050   43.4870   29.2820 C   0  0  0  0  0  0  0  0  0  0  0  0
   36.1470   40.3290   26.8810 S   0  0  0  0  0  0  0  0  0  0  0  0
  1  3  1  0
  2  1  1  0
  3  7  1  0
  4  5  1  0
  5  3  1  0
  6  4  2  0
  8  4  1  0
M  END
$$$$

     RDKit          3D

 11 10  0  0  0  0  0  0  0  0999 V2000
   35.4270   41.4790   24.7530 P   0  0  0  0  0  0  0  0  0  0  0  0
   36.5970   41.5260   25.9010 O   0  0  0  0  0  0  0  0  0  0  0  0
   35.3420   40.0660   24.2490 O   0  0  0  0  0  0  0  0  0  0  0  0
   37.4320   40.5370   26.4160 C   0  0  0  0  0  0  0  0  0  0  0  0
   37.3910   39.3190   26.1020 O   0  0  0  0  0  0  0  0  0  0  0  0
   35.8210   42.5050   23.7400 O   0  0  0  0  0  0  0  0  0  0  0  0
   38.5670   40.9460   27.3940 C   0  0  0  0  0  0  0  0  0  0  0  0
   34.1910   41.9780   25.3750 O   0  0  0  0  0  0  0  0  0  0  0  0
   38.1500   42.1650   28.1290 C   0  0  0  0  0  0  0  0  0  0  0  0
   39.0370   43.2720   27.6530 C   0  0  0  0  0  0  0  0  0  0  0  0
   38.8210   40.0130   28.4750 N   0  0  0  0  0  0  0  0  0  0  0  0
  1  8  1  0
  1  2  1  0
  2  4  1  0
  3  1  1  0
  4  7  1  0
  5  4  2  0
  6  1  2  0
  7  9  1  0
  7 11  1  0
 10  9  1  0
M  END
$$$$

     RDKit          3D

 13 15  0  0  0  0  0  0  0  0999 V2000
   40.1550   40.3090   27.2280 N   0  0  0  0  0  0  0  0  0  0  0  0
   36.6070   40.1290   26.0810 C   0  0  0  0  0  0  0  0  0  0  0  0
   36.7660   42.7410   26.0710 C   0  0  0  0  0  0  0  0  0  0  0  0
   37.3490   42.2570   27.3680 C   0  0  0  0  0  0  0  0  0  0  0  0
   34.6630   41.6350   25.5870 O   0  0  0  0  0  0  0  0  0  0  0  0
   37.8280   40.0060   26.9460 C   0  0  0  0  0  0  0  0  0  0  0  0
   39.2620   40.9260   25.0360 C   0  0  0  0  0  0  0  0  0  0  0  0
   35.9270   41.4850   26.3550 C   0  0  0  0  0  0  0  0  0  0  0  0
   37.7440   43.9920   25.9760 O   0  0  0  0  0  0  0  0  0  0  0  0
   39.0070   40.8130   26.5220 C   0  0  0  0  0  0  0  0  0  0  0  0
   36.1980   39.2480   25.3530 O   0  0  0  0  0  0  0  0  0  0  0  0
   37.4400   40.7280   28.1220 O   0  0  0  0  0  0  0  0  0  0  0  0
   38.6990   42.1780   27.0930 C   0  0  0  0  0  0  0  0  0  0  0  0
  2  8  1  0
  3  9  1  0
  3  8  1  0
  3  4  1  0
  4 13  1  0
  4 12  1  0
  6  2  1  0
  6 12  1  0
  8  5  1  0
  8  4  1  0
 10  7  1  0
 10  6  1  0
 10 13  1  0
 10  1  1  0
 11  2  2  0
M  END
$$$$

     RDKit          3D

  8  7  0  0  0  0  0  0  0  0999 V2000
   38.3350   43.3030   28.4120 C   0  0  0  0  0  0  0  0  0  0  0  0
   36.9090   39.9940   27.3880 O   0  0  0  0  0  0  0  0  0  0  0  0
   39.9830   40.6750   26.9650 C   0  0  0  0  0  0  0  0  0  0  0  0
   38.0720   41.8280   28.4630 N   0  0  0  0  0  0  0  0  0  0  0  0
   38.8090   40.9770   26.2230 C   0  0  0  0  0  0  0  0  0  0  0  0
   38.4470   41.0630   24.8620 O   0  0  0  0  0  0  0  0  0  0  0  0
   37.6120   41.2630   27.1680 C   0  0  0  0  0  0  0  0  0  0  0  0
   36.6740   42.1280   26.4760 O   0  0  0  0  0  0  0  0  0  0  0  0
  1  4  1  0
  5  3  1  0
  5  7  1  0
  6  5  1  0
  7  2  1  0
  7  4  1  0
  8  7  1  0
M  END
$$$$

     RDKit          3D

 13 13  0  0  0  0  0  0  0  0999 V2000
   40.4080   40.2370   28.9420 O   0  0  0  0  0  0  0  0  0  0  0  0
   36.0310   39.9840   25.1640 C   0  0  0  0  0  0  0  0  0  0  0  0
   34.9960   41.1830   23.9320 C   0  0  0  0  0  0  0  0  0  0  0  0
   39.0300   40.1440   29.1230 C   0  0  0  0  0  0  0  0  0  0  0  0
   34.3050   41.1150   25.0990 C   0  0  0  0  0  0  0  0  0  0  0  0
   35.9900   40.3100   23.8230 N   0  0  0  0  0  0  0  0  0  0  0  0
   37.5360   41.9760   28.4540 O   0  0  0  0  0  0  0  0  0  0  0  0
   36.9020   39.0830   27.0590 O   0  0  0  0  0  0  0  0  0  0  0  0
   35.1630   40.5900   25.9580 N   0  0  0  0  0  0  0  0  0  0  0  0
   38.1480   40.9940   28.1400 C   0  0  0  0  0  0  0  0  0  0  0  0
   37.7460   40.2330   26.8210 C   0  0  0  0  0  0  0  0  0  0  0  0
   38.8550   40.0060   25.8830 O   0  0  0  0  0  0  0  0  0  0  0  0
   36.6420   38.8530   25.6450 O   0  0  0  0  0  0  0  0  0  0  0  0
  1  4  1  0
  2 13  1  0
  2  9  2  0
  3  5  1  0
  5  9  1  0
  6  3  1  0
  6  2  2  0
 10  7  2  0
 10  4  1  0
 11 12  1  0
 11  8  1  0
 11 10  1  0
 13  8  1  0
M  END
$$$$

     RDKit          3D

 15 16  0  0  0  0  0  0  0  0999 V2000
   39.5460   42.3970   26.0660 C   0  0  0  0  0  0  0  0  0  0  0  0
   40.7670   41.7130   26.3120 O   0  0  0  0  0  0  0  0  0  0  0  0
   33.7910   41.3710   24.7930 C   0  0  0  0  0  0  0  0  0  0  0  0
   36.6560   39.8010   27.6350 C   0  0  0  0  0  0  0  0  0  0  0  0
   33.6340   40.4760   23.7510 C   0  0  0  0  0  0  0  0  0  0  0  0
   38.1590   40.6900   25.9930 O   0  0  0  0  0  0  0  0  0  0  0  0
   39.1880   40.6810   28.2640 S   0  0  0  0  0  0  0  0  0  0  0  0
   34.9030   41.2890   25.6020 C   0  0  0  0  0  0  0  0  0  0  0  0
   35.8360   40.2910   25.3440 C   0  0  0  0  0  0  0  0  0  0  0  0
   37.7730   39.7170   28.5890 C   0  0  0  0  0  0  0  0  0  0  0  0
   38.5590   41.6510   26.9180 C   0  0  0  0  0  0  0  0  0  0  0  0
   34.5890   39.5190   23.4500 C   0  0  0  0  0  0  0  0  0  0  0  0
   37.9010   38.4200   28.9750 C   0  0  0  0  0  0  0  0  0  0  0  0
   36.8700   39.9530   26.2200 C   0  0  0  0  0  0  0  0  0  0  0  0
   35.6860   39.4000   24.2810 C   0  0  0  0  0  0  0  0  0  0  0  0
  1  2  1  0
  3  8  1  0
  4 10  1  0
  5  3  2  0
  6 14  1  0
  6 11  1  0
  7 10  1  0
  9  8  2  0
 10 13  2  0
 11  1  1  0
 11  7  1  0
 12  5  1  0
 12 15  2  0
 14  9  1  0
 14  4  1  0
 15  9  1  0
M  END
$$$$

     RDKit          3D

  7  6  0  0  0  0  0  0  0  0999 V2000
   37.7310   41.8350   27.8450 C   0  0  0  0  0  0  0  0  0  0  0  0
   37.9390   40.3620   27.2470 C   0  0  0  0  0  0  0  0  0  0  0  0
   36.5490   39.6190   27.1590 C   0  0  0  0  0  0  0  0  0  0  0  0
   39.2340   42.6010   28.2840 S   0  0  0  0  0  0  0  0  0  0  0  0
   38.8390   39.6220   28.2160 N   0  0  0  0  0  0  0  0  0  0  0  0
   38.5530   40.4450   25.8030 C   0  0  0  0  0  0  0  0  0  0  0  0
   38.9530   43.4390   30.2160 S   0  0  0  0  0  0  0  0  0  0  0  0
  1  4  1  0
  2  1  1  0
  2  5  1  0
  3  2  1  0
  4  7  1  0
  6  2  1  0
M  END
$$$$

     RDKit          3D

  9  9  0  0  0  0  0  0  0  0999 V2000
   38.3320   40.1750   26.0760 N   0  0  0  0  0  0  0  0  0  0  0  0
   37.7250   41.3750   28.0840 N   0  0  0  0  0  0  0  0  0  0  0  0
   36.1980   40.8790   26.5580 O   0  0  0  0  0  0  0  0  0  0  0  0
   39.6230   41.9440   26.5480 C   0  0  0  0  0  0  0  0  0  0  0  0
   39.8360   40.4620   26.3060 C   0  0  0  0  0  0  0  0  0  0  0  0
   39.5520   42.5210   25.1930 O   0  0  0  0  0  0  0  0  0  0  0  0
   39.8960   42.0890   28.9050 O   0  0  0  0  0  0  0  0  0  0  0  0
   38.8790   42.2150   27.9040 C   0  0  0  0  0  0  0  0  0  0  0  0
   37.2650   40.9530   26.8630 C   0  0  0  0  0  0  0  0  0  0  0  0
  1  5  1  0
  1  9  1  0
  3  9  2  0
  4  6  1  0
  4  8  1  0
  5  4  1  0
  8  2  1  0
  8  7  1  0
  9  2  1  0
M  END
$$$$

     RDKit          3D

 10  9  0  0  0  0  0  0  0  0999 V2000
   38.4810   43.2380   28.9920 O   0  0  0  0  0  0  0  0  0  0  0  0
   37.7330   39.5820   26.2810 N   0  0  0  0  0  0  0  0  0  0  0  0
   36.7950   41.4700   27.7760 O   0  0  0  0  0  0  0  0  0  0  0  0
   39.2690   41.1870   25.4190 C   0  0  0  0  0  0  0  0  0  0  0  0
   38.8380   42.3520   28.2510 C   0  0  0  0  0  0  0  0  0  0  0  0
   37.8660   41.9470   27.0020 C   0  0  0  0  0  0  0  0  0  0  0  0
   39.7900   41.5350   28.3850 O   0  0  0  0  0  0  0  0  0  0  0  0
   39.2610   42.0560   24.2890 O   0  0  0  0  0  0  0  0  0  0  0  0
   37.1250   40.7000   24.4810 C   0  0  0  0  0  0  0  0  0  0  0  0
   37.8720   40.9200   25.7920 C   0  0  0  0  0  0  0  0  0  0  0  0
  4 10  1  0
  5  7  2  0
  5  1  1  0
  6  3  1  0
  6  5  1  0
  8  4  1  0
 10  9  1  0
 10  2  1  0
 10  6  1  0
M  END
$$$$

     RDKit          3D

 20 20  0  0  0  0  0  0  0  0999 V2000
   38.8900   48.6290   24.4340 C   0  0  0  0  0  0  0  0  0  0  0  0
   39.3720   42.2220   26.2380 C   0  0  0  0  0  0  0  0  0  0  0  0
   39.2420   40.3940   28.5550 N   0  0  0  0  0  0  0  0  0  0  0  0
   38.6390   47.5820   23.3780 O   0  0  0  0  0  0  0  0  0  0  0  0
   39.6330   38.9320   28.6140 C   0  0  0  0  0  0  0  0  0  0  0  0
   37.4470   44.9750   25.6100 C   0  0  0  0  0  0  0  0  0  0  0  0
   37.4670   40.4470   26.7700 C   0  0  0  0  0  0  0  0  0  0  0  0
   38.8860   46.8160   25.8040 C   0  0  0  0  0  0  0  0  0  0  0  0
   37.0900   42.8600   26.7510 O   0  0  0  0  0  0  0  0  0  0  0  0
   39.3780   43.4400   25.2300 C   0  0  0  0  0  0  0  0  0  0  0  0
   38.4220   38.0390   29.0800 C   0  0  0  0  0  0  0  0  0  0  0  0
   37.5670   46.4340   25.3020 C   0  0  0  0  0  0  0  0  0  0  0  0
   38.1980   44.1300   25.1240 O   0  0  0  0  0  0  0  0  0  0  0  0
   39.9830   41.1200   25.5480 O   0  0  0  0  0  0  0  0  0  0  0  0
   38.0120   41.8130   26.8080 C   0  0  0  0  0  0  0  0  0  0  0  0
   40.6570   44.2360   25.5490 O   0  0  0  0  0  0  0  0  0  0  0  0
   39.3670   48.1210   25.4150 O   0  0  0  0  0  0  0  0  0  0  0  0
   36.0410   40.3490   26.9890 O   0  0  0  0  0  0  0  0  0  0  0  0
   37.5860   37.6390   27.9540 N   0  0  0  0  0  0  0  0  0  0  0  0
   38.0440   41.0230   28.0770 C   0  0  0  0  0  0  0  0  0  0  0  0
  1 17  1  0
  2 14  1  0
  2 15  1  0
  3  5  1  0
  4  1  1  0
  5 11  1  0
  7 15  1  0
  7 18  1  0
  7 20  1  0
 10 16  1  0
 10  2  1  0
 12  6  1  0
 12  8  1  0
 13 10  1  0
 13  6  1  0
 15  9  1  0
 15 20  1  0
 17  8  1  0
 19 11  1  0
 20  3  1  0
M  END
$$$$

     RDKit          3D

 10 10  0  0  0  0  0  0  0  0999 V2000
   39.3020   40.2750   24.2540 Cl  0  0  0  0  0  0  0  0  0  0  0  0
   38.0200   41.1110   25.1250 C   0  0  0  0  0  0  0  0  0  0  0  0
   35.5290   40.3570   24.6840 O   0  0  0  0  0  0  0  0  0  0  0  0
   37.2050   41.3770   28.7540 C   0  0  0  0  0  0  0  0  0  0  0  0
   38.7180   41.5210   26.3880 C   0  0  0  0  0  0  0  0  0  0  0  0
   37.5960   42.3370   24.3150 C   0  0  0  0  0  0  0  0  0  0  0  0
   37.5100   40.1110   27.9390 C   0  0  0  0  0  0  0  0  0  0  0  0
   38.8560   40.2880   27.3540 C   0  0  0  0  0  0  0  0  0  0  0  0
   36.7650   40.1470   25.4110 C   0  0  0  0  0  0  0  0  0  0  0  0
   36.5650   39.8540   26.7710 C   0  0  0  0  0  0  0  0  0  0  0  0
  1  2  1  0
  2  6  1  0
  2  9  1  0
  2  5  1  0
  5  8  1  0
  7  4  1  0
  8  7  1  0
  9  3  1  0
  9 10  1  0
 10  7  1  0
M  END
$$$$

     RDKit          3D

  9 10  0  0  0  0  0  0  0  0999 V2000
   35.8340   42.3770   26.6900 C   0  0  0  0  0  0  0  0  0  0  0  0
   37.1560   42.8450   26.2000 O   0  0  0  0  0  0  0  0  0  0  0  0
   37.1930   40.5580   26.2220 O   0  0  0  0  0  0  0  0  0  0  0  0
   39.9020   41.8850   27.7130 O   0  0  0  0  0  0  0  0  0  0  0  0
   40.8740   41.1440   26.9890 C   0  0  0  0  0  0  0  0  0  0  0  0
   36.3010   41.1110   27.2540 C   0  0  0  0  0  0  0  0  0  0  0  0
   38.0070   41.7820   26.1570 C   0  0  0  0  0  0  0  0  0  0  0  0
   37.4180   41.4300   28.3770 C   0  0  0  0  0  0  0  0  0  0  0  0
   38.5850   41.7100   27.5050 C   0  0  0  0  0  0  0  0  0  0  0  0
  2  1  1  0
  3  6  1  0
  5  4  1  0
  6  1  1  0
  6  8  1  0
  7  2  1  0
  7  3  1  0
  7  9  1  0
  9  4  1  0
  9  8  1  0
M  END
$$$$

     RDKit          3D

  8  7  0  0  0  0  0  0  0  0999 V2000
   38.4990   42.9690   29.0240 O   0  0  0  0  0  0  0  0  0  0  0  0
   38.8800   41.0980   27.1500 C   0  0  0  0  0  0  0  0  0  0  0  0
   37.4990   39.5290   26.0160 O   0  0  0  0  0  0  0  0  0  0  0  0
   39.1290   41.8150   28.4960 C   0  0  0  0  0  0  0  0  0  0  0  0
   36.7200   40.4950   27.7950 O   0  0  0  0  0  0  0  0  0  0  0  0
   40.3930   41.8820   28.7740 O   0  0  0  0  0  0  0  0  0  0  0  0
   40.0410   40.2170   27.1910 N   0  0  0  0  0  0  0  0  0  0  0  0
   37.6230   40.3380   26.9570 C   0  0  0  0  0  0  0  0  0  0  0  0
  2  7  1  0
  2  4  1  0
  3  8  2  0
  4  6  2  0
  4  1  1  0
  8  2  1  0
  8  5  1  0
M  END
$$$$

     RDKit          3D

 15 15  0  0  0  0  0  0  0  0999 V2000
   34.7240   41.4400   23.8370 O   0  0  0  0  0  0  0  0  0  0  0  0
   38.7800   42.3420   28.7560 O   0  0  0  0  0  0  0  0  0  0  0  0
   35.6820   38.4650   24.1530 Br  0  0  0  0  0  0  0  0  0  0  0  0
   38.9060   41.8040   25.5000 O   0  0  0  0  0  0  0  0  0  0  0  0
   39.6890   41.4660   28.0860 C   0  0  0  0  0  0  0  0  0  0  0  0
   38.8990   40.2760   27.7180 C   0  0  0  0  0  0  0  0  0  0  0  0
   36.5870   42.7190   24.7020 C   0  0  0  0  0  0  0  0  0  0  0  0
   38.8820   39.5570   28.9650 O   0  0  0  0  0  0  0  0  0  0  0  0
   36.2900   40.1420   25.0760 C   0  0  0  0  0  0  0  0  0  0  0  0
   37.6970   40.7390   27.3630 C   0  0  0  0  0  0  0  0  0  0  0  0
   36.0950   41.2860   24.1190 C   0  0  0  0  0  0  0  0  0  0  0  0
   37.9520   41.6950   26.2920 C   0  0  0  0  0  0  0  0  0  0  0  0
   36.5530   42.5360   26.0960 O   0  0  0  0  0  0  0  0  0  0  0  0
   37.1720   38.5960   26.6060 O   0  0  0  0  0  0  0  0  0  0  0  0
   36.7700   39.8620   26.4490 C   0  0  0  0  0  0  0  0  0  0  0  0
  4 12  2  0
  5  2  1  0
  6  5  1  0
  6  8  1  0
  7 13  1  0
  9  3  1  0
  9 15  1  0
 10  6  1  0
 11  1  1  0
 11  7  1  0
 11  9  1  0
 12 10  1  0
 13 12  1  0
 15 14  1  0
 15 10  1  0
M  END
$$$$

     RDKit          3D

 20 20  0  0  0  0  0  0  0  0999 V2000
   39.2140   38.3140   28.8050 C   0  0  0  0  0  0  0  0  0  0  0  0
   36.8110   39.2530   26.6150 C   0  0  0  0  0  0  0  0  0  0  0  0
   36.1310   42.0100   20.3610 O   0  0  0  0  0  0  0  0  0  0  0  0
   34.9970   40.0360   21.2940 N   0  0  0  0  0  0  0  0  0  0  0  0
   36.1210   39.5660   25.3260 C   0  0  0  0  0  0  0  0  0  0  0  0
   34.3660   37.7770   22.8720 N   0  0  0  0  0  0  0  0  0  0  0  0
   35.3900   40.9350   20.1140 C   0  0  0  0  0  0  0  0  0  0  0  0
   36.9240   38.1310   27.1390 O   0  0  0  0  0  0  0  0  0  0  0  0
   35.0240   38.7000   23.4200 C   0  0  0  0  0  0  0  0  0  0  0  0
   39.1940   42.8170   28.7340 O   0  0  0  0  0  0  0  0  0  0  0  0
   36.7200   42.4080   27.6860 F   0  0  0  0  0  0  0  0  0  0  0  0
   35.4140   39.9490   22.6750 C   0  0  0  0  0  0  0  0  0  0  0  0
   37.3230   39.9410   29.4910 O   0  0  0  0  0  0  0  0  0  0  0  0
   38.0780   42.1860   28.0690 C   0  0  0  0  0  0  0  0  0  0  0  0
   38.5220   39.7110   28.8100 C   0  0  0  0  0  0  0  0  0  0  0  0
   35.4130   38.4830   24.7260 C   0  0  0  0  0  0  0  0  0  0  0  0
   36.2520   40.8560   24.7670 C   0  0  0  0  0  0  0  0  0  0  0  0
   38.4620   40.7260   27.6800 C   0  0  0  0  0  0  0  0  0  0  0  0
   35.8970   41.0610   23.3850 C   0  0  0  0  0  0  0  0  0  0  0  0
   37.5440   40.3870   26.6850 N   0  0  0  0  0  0  0  0  0  0  0  0
  2 20  1  0
  2  8  2  0
  4 12  1  0
  5  2  1  0
  6  9  1  0
  7  3  1  0
  7  4  2  3
  9 16  1  0
 12 19  1  0
 12  9  2  0
 14 11  1  0
 14 10  1  0
 15  1  1  0
 15 13  1  0
 16  5  2  0
 17  5  1  0
 18 20  1  0
 18 14  1  0
 18 15  1  0
 19 17  2  0
M  END
$$$$

     RDKit          3D

  7  6  0  0  0  0  0  0  0  0999 V2000
   39.5620   40.7730   28.2190 N   0  0  0  0  0  0  0  0  0  0  0  0
   37.4220   40.6460   27.1010 C   0  0  0  0  0  0  0  0  0  0  0  0
   40.2600   41.6890   29.0710 O   0  0  0  0  0  0  0  0  0  0  0  0
   38.1500   41.2550   28.1150 C   0  0  0  0  0  0  0  0  0  0  0  0
   37.2020   39.7800   26.1320 C   0  0  0  0  0  0  0  0  0  0  0  0
   37.9380   42.4690   28.6100 O   0  0  0  0  0  0  0  0  0  0  0  0
   39.3770   39.3240   28.0630 C   0  0  0  0  0  0  0  0  0  0  0  0
  1  3  1  0
  2  4  1  0
  4  1  1  0
  4  6  2  0
  5  2  1  0
  7  1  1  0
M  END
$$$$
