
     RDKit          3D

 27 29  0  0  0  0  0  0  0  0999 V2000
   38.0180   37.8500   26.1660 C   0  0  0  0  0  0  0  0  0  0  0  0
   32.7120   38.0020   20.9510 C   0  0  0  0  0  0  0  0  0  0  0  0
   33.2070   39.4230   21.0900 C   0  0  0  0  0  0  0  0  0  0  0  0
   36.9340   38.0260   24.1530 N   0  0  0  0  0  0  0  0  0  0  0  0
   42.0470   41.0960   24.2160 C   0  0  0  0  0  0  0  0  0  0  0  0
   37.4070   34.8220   29.3170 C   0  0  0  0  0  0  0  0  0  0  0  0
   39.7700   39.8690   24.6830 C   0  0  0  0  0  0  0  0  0  0  0  0
   42.2160   39.8780   24.9940 N   0  0  0  0  0  0  0  0  0  0  0  0
   39.2390   38.6250   26.6450 C   0  0  0  0  0  0  0  0  0  0  0  0
   34.6640   37.7180   22.5920 C   0  0  0  0  0  0  0  0  0  0  0  0
   37.2350   33.8250   33.3850 C   0  0  0  0  0  0  0  0  0  0  0  0
   37.8900   36.6800   26.4300 N   0  0  0  0  0  0  0  0  0  0  0  0
   37.6110   34.7300   27.9060 C   0  0  0  0  0  0  0  0  0  0  0  0
   36.2270   38.8810   24.7810 C   0  0  0  0  0  0  0  0  0  0  0  0
   33.5920   37.0750   21.7760 C   0  0  0  0  0  0  0  0  0  0  0  0
   33.3740   39.7850   22.5010 C   0  0  0  0  0  0  0  0  0  0  0  0
   34.3970   39.0760   23.1890 C   0  0  0  0  0  0  0  0  0  0  0  0
   34.9310   33.6840   33.2030 C   0  0  0  0  0  0  0  0  0  0  0  0
   41.0230   39.0220   24.7620 C   0  0  0  0  0  0  0  0  0  0  0  0
   35.9160   33.5830   32.4430 C   0  0  0  0  0  0  0  0  0  0  0  0
   37.1170   38.2590   25.3450 C   0  0  0  0  0  0  0  0  0  0  0  0
   35.0730   39.7650   24.4720 S   0  0  0  0  0  0  0  0  0  0  0  0
   37.8650   35.9000   27.2030 C   0  0  0  0  0  0  0  0  0  0  0  0
   39.2620   39.9830   26.0510 N   0  0  0  0  0  0  0  0  0  0  0  0
   36.9960   33.7570   30.0890 C   0  0  0  0  0  0  0  0  0  0  0  0
   36.6220   34.3340   31.4150 C   0  0  0  0  0  0  0  0  0  0  0  0
   37.7560   34.6230   32.2680 O   0  0  0  0  0  0  0  0  0  0  0  0
  1 12  1  0
  1  9  1  0
  2  3  1  0
  2 15  1  0
  3 16  1  0
  4 14  1  0
  4 21  1  0
  5  8  1  0
  6 25  1  0
  7 19  1  0
  7 24  1  0
 10 17  1  0
 12 23  1  0
 13  6  2  3
 14 22  1  0
 14 21  1  0
 15 10  1  0
 16 17  1  0
 17 22  1  0
 19  8  1  0
 20 18  1  0
 20 11  1  0
 21  1  1  0
 23 13  1  0
 24  9  1  0
 26 25  1  0
 26 27  1  0
 26 20  1  0
 27 11  1  0
M  END
$$$$

     RDKit          3D

 12 13  0  0  0  0  0  0  0  0999 V2000
   38.6290   40.3790   24.6790 C   0  0  0  0  0  0  0  0  0  0  0  0
   36.3240   40.2990   21.7970 C   0  0  0  0  0  0  0  0  0  0  0  0
   38.1560   38.9920   22.5600 C   0  0  0  0  0  0  0  0  0  0  0  0
   37.9490   39.7710   23.5270 C   0  0  0  0  0  0  0  0  0  0  0  0
   37.5670   40.9870   25.3740 O   0  0  0  0  0  0  0  0  0  0  0  0
   36.3460   41.2150   24.4430 C   0  0  0  0  0  0  0  0  0  0  0  0
   40.9180   39.5740   24.4530 O   0  0  0  0  0  0  0  0  0  0  0  0
   39.9340   40.2370   25.2000 N   0  0  0  0  0  0  0  0  0  0  0  0
   35.7420   38.0140   20.2890 N   0  0  0  0  0  0  0  0  0  0  0  0
   37.0940   39.2370   21.5940 C   0  0  0  0  0  0  0  0  0  0  0  0
   36.7480   40.5890   23.1770 C   0  0  0  0  0  0  0  0  0  0  0  0
   36.9010   38.6450   20.4450 C   0  0  0  0  0  0  0  0  0  0  0  0
  1  8  2  3
  1  5  1  0
  4  3  1  0
  4  1  1  0
  6  5  1  0
  7  8  1  0
  9 12  2  0
 10 12  1  0
 10  2  1  0
 10  3  1  0
 11  2  1  0
 11  4  1  0
 11  6  1  0
M  END
$$$$

     RDKit          3D

 21 25  0  0  0  0  0  0  0  0999 V2000
   35.9850   38.4870   23.9100 C   0  0  0  0  0  0  0  0  0  0  0  0
   32.6520   40.0130   22.9890 O   0  0  0  0  0  0  0  0  0  0  0  0
   34.6110   37.2760   22.2580 O   0  0  0  0  0  0  0  0  0  0  0  0
   39.4590   39.4120   23.8220 C   0  0  0  0  0  0  0  0  0  0  0  0
   38.0860   37.3880   24.9700 C   0  0  0  0  0  0  0  0  0  0  0  0
   42.0720   40.3840   24.8980 N   0  0  0  0  0  0  0  0  0  0  0  0
   34.6720   39.3870   23.9640 C   0  0  0  0  0  0  0  0  0  0  0  0
   37.5470   38.2410   23.9600 C   0  0  0  0  0  0  0  0  0  0  0  0
   41.6860   40.7920   23.6020 C   0  0  0  0  0  0  0  0  0  0  0  0
   35.7400   39.6550   23.0360 C   0  0  0  0  0  0  0  0  0  0  0  0
   32.4210   37.1830   21.5770 C   0  0  0  0  0  0  0  0  0  0  0  0
   37.8420   40.4520   22.4950 C   0  0  0  0  0  0  0  0  0  0  0  0
   39.3670   37.5530   25.3670 C   0  0  0  0  0  0  0  0  0  0  0  0
   40.1410   38.6280   24.8120 C   0  0  0  0  0  0  0  0  0  0  0  0
   40.1460   40.7200   23.3230 C   0  0  0  0  0  0  0  0  0  0  0  0
   33.2710   37.7070   22.6880 C   0  0  0  0  0  0  0  0  0  0  0  0
   41.5980   38.9190   25.2670 C   0  0  0  0  0  0  0  0  0  0  0  0
   33.4510   39.1080   23.2290 C   0  0  0  0  0  0  0  0  0  0  0  0
   36.6460   40.8490   23.3580 C   0  0  0  0  0  0  0  0  0  0  0  0
   35.5220   37.1630   23.3840 C   0  0  0  0  0  0  0  0  0  0  0  0
   38.3020   39.1300   23.1060 N   0  0  0  0  0  0  0  0  0  0  0  0
  1 20  1  0
  1  8  1  0
  1  7  1  0
  2 18  2  0
  3 16  1  0
  3 20  1  0
  4 15  1  0
  4 14  1  0
  5 13  2  0
  6 17  1  0
  7 18  1  0
  8  5  1  0
  9  6  1  0
 10 19  1  0
 10  1  1  0
 10  7  1  0
 12 19  1  0
 14 17  1  0
 14 13  1  0
 15  9  1  0
 16 11  1  0
 16 18  1  0
 21 12  1  0
 21  4  1  0
 21  8  1  0
M  END
$$$$

     RDKit          3D

 29 31  0  0  0  0  0  0  0  0999 V2000
   33.6460   39.7040   22.7880 C   0  0  0  0  0  0  0  0  0  0  0  0
   37.3730   37.0420   29.8650 C   0  0  0  0  0  0  0  0  0  0  0  0
   31.8020   40.3410   21.2580 O   0  0  0  0  0  0  0  0  0  0  0  0
   35.8050   38.5850   24.9570 C   0  0  0  0  0  0  0  0  0  0  0  0
   38.1730   38.0900   33.3690 C   0  0  0  0  0  0  0  0  0  0  0  0
   38.0170   37.9200   24.9210 C   0  0  0  0  0  0  0  0  0  0  0  0
   37.7780   36.8440   35.3250 C   0  0  0  0  0  0  0  0  0  0  0  0
   37.7600   36.6710   27.4860 O   0  0  0  0  0  0  0  0  0  0  0  0
   35.6180   38.1060   23.3570 C   0  0  0  0  0  0  0  0  0  0  0  0
   37.6470   36.9350   33.9410 C   0  0  0  0  0  0  0  0  0  0  0  0
   34.2350   37.4610   23.1930 C   0  0  0  0  0  0  0  0  0  0  0  0
   32.5030   40.6430   22.4720 C   0  0  0  0  0  0  0  0  0  0  0  0
   36.7130   37.5590   26.9060 C   0  0  0  0  0  0  0  0  0  0  0  0
   38.9510   38.7220   35.5810 C   0  0  0  0  0  0  0  0  0  0  0  0
   37.8030   37.8600   31.0280 C   0  0  0  0  0  0  0  0  0  0  0  0
   36.3850   36.5170   30.2020 O   0  0  0  0  0  0  0  0  0  0  0  0
   34.5070   36.1920   22.8400 O   0  0  0  0  0  0  0  0  0  0  0  0
   36.7370   37.5860   25.4480 C   0  0  0  0  0  0  0  0  0  0  0  0
   38.1240   38.2690   31.9370 C   0  0  0  0  0  0  0  0  0  0  0  0
   33.3000   38.2420   23.1650 C   0  0  0  0  0  0  0  0  0  0  0  0
   38.1600   37.2840   28.5330 C   0  0  0  0  0  0  0  0  0  0  0  0
   36.2570   39.9040   24.9540 O   0  0  0  0  0  0  0  0  0  0  0  0
   38.4370   37.7040   36.1480 C   0  0  0  0  0  0  0  0  0  0  0  0
   40.3420   38.2800   26.0150 O   0  0  0  0  0  0  0  0  0  0  0  0
   34.1180   39.2610   21.6080 O   0  0  0  0  0  0  0  0  0  0  0  0
   38.9920   36.9950   24.9200 C   0  0  0  0  0  0  0  0  0  0  0  0
   38.9750   38.7700   25.7050 C   0  0  0  0  0  0  0  0  0  0  0  0
   38.7190   38.9980   34.1850 C   0  0  0  0  0  0  0  0  0  0  0  0
   35.3930   39.2720   22.4620 C   0  0  0  0  0  0  0  0  0  0  0  0
  1 12  1  0
  1 20  1  0
  2 16  1  0
  2 15  2  0
  3 12  1  0
  4 22  1  0
  4 18  1  0
  5 10  2  0
  5 28  1  0
  6 26  1  0
  6 18  1  0
  6 27  1  0
  7 23  2  0
  8 21  1  0
  9  4  1  0
 10  7  1  0
 11 17  1  0
 11  9  1  0
 13  8  1  0
 14 23  1  0
 15 19  2  0
 18 13  1  0
 19  5  1  0
 20 11  1  0
 21  2  1  0
 25  1  1  0
 27 24  1  0
 28 14  2  0
 29 25  1  0
 29  1  1  0
 29  9  1  0
M  END
$$$$

     RDKit          3D

 13 13  0  0  0  0  0  0  0  0999 V2000
   34.6430   39.2710   22.9170 C   0  0  0  0  0  0  0  0  0  0  0  0
   31.6820   38.5700   22.5670 C   0  0  0  0  0  0  0  0  0  0  0  0
   31.2050   39.1700   23.9290 C   0  0  0  0  0  0  0  0  0  0  0  0
   37.0480   40.0910   24.4380 S   0  0  0  0  0  0  0  0  0  0  0  0
   32.6160   39.7880   24.1380 N   0  0  0  0  0  0  0  0  0  0  0  0
   33.0360   39.1290   22.9640 C   0  0  0  0  0  0  0  0  0  0  0  0
   31.7400   37.0540   22.5080 C   0  0  0  0  0  0  0  0  0  0  0  0
   29.5230   38.7510   23.9450 C   0  0  0  0  0  0  0  0  0  0  0  0
   36.4000   37.6420   23.0850 N   0  0  0  0  0  0  0  0  0  0  0  0
   35.1290   37.8500   22.6570 C   0  0  0  0  0  0  0  0  0  0  0  0
   34.3770   37.1030   21.9990 O   0  0  0  0  0  0  0  0  0  0  0  0
   35.3600   39.8440   24.2050 C   0  0  0  0  0  0  0  0  0  0  0  0
   28.9300   39.2880   22.7060 O   0  0  0  0  0  0  0  0  0  0  0  0
  1 12  1  0
  2  7  1  0
  2  6  1  0
  2  3  1  0
  3  8  1  0
  3  5  1  0
  6  1  1  0
  6  5  1  0
 10  1  1  0
 10  9  1  0
 11 10  2  0
 12  4  1  0
 13  8  1  0
M  END
$$$$

     RDKit          3D

  9  9  0  0  0  0  0  0  0  0999 V2000
   37.8380   39.1890   24.1000 C   0  0  0  0  0  0  0  0  0  0  0  0
   35.8590   40.5110   23.7750 C   0  0  0  0  0  0  0  0  0  0  0  0
   39.0150   38.8470   24.9600 C   0  0  0  0  0  0  0  0  0  0  0  0
   36.4620   38.8850   22.1880 N   0  0  0  0  0  0  0  0  0  0  0  0
   36.2010   38.2610   20.9310 C   0  0  0  0  0  0  0  0  0  0  0  0
   39.3930   37.4860   24.7260 N   0  0  0  0  0  0  0  0  0  0  0  0
   35.5420   39.8140   22.7000 C   0  0  0  0  0  0  0  0  0  0  0  0
   37.6560   38.5760   22.9160 C   0  0  0  0  0  0  0  0  0  0  0  0
   36.9650   40.1500   24.5040 N   0  0  0  0  0  0  0  0  0  0  0  0
  1  9  1  0
  1  3  1  0
  2  9  2  0
  4  7  1  0
  4  8  1  0
  5  4  1  0
  6  3  1  0
  7  2  1  0
  8  1  2  0
M  END
$$$$

     RDKit          3D

  9  9  0  0  0  0  0  0  0  0999 V2000
   37.5800   39.8120   21.5900 S   0  0  0  0  0  0  0  0  0  0  0  0
   36.5550   40.0580   23.6390 C   0  0  0  0  0  0  0  0  0  0  0  0
   38.8890   39.1920   25.0100 N   0  0  0  0  0  0  0  0  0  0  0  0
   36.8420   38.6470   23.7570 N   0  0  0  0  0  0  0  0  0  0  0  0
   38.2090   40.2660   25.7910 C   0  0  0  0  0  0  0  0  0  0  0  0
   38.5980   38.3790   21.5310 C   0  0  0  0  0  0  0  0  0  0  0  0
   38.2870   38.6250   23.9020 C   0  0  0  0  0  0  0  0  0  0  0  0
   36.5690   40.7570   25.3030 S   0  0  0  0  0  0  0  0  0  0  0  0
   39.0320   37.9250   22.9170 C   0  0  0  0  0  0  0  0  0  0  0  0
  2  4  1  0
  2  8  1  0
  3  5  1  0
  4  7  1  0
  6  1  1  0
  6  9  1  0
  7  3  2  0
  8  5  1  0
  9  7  1  0
M  END
$$$$

     RDKit          3D

 24 26  0  0  0  0  0  0  0  0999 V2000
   39.8170   39.4800   26.9380 C   0  0  0  0  0  0  0  0  0  0  0  0
   34.2280   37.5420   23.8480 N   0  0  0  0  0  0  0  0  0  0  0  0
   37.3220   38.9000   24.8290 C   0  0  0  0  0  0  0  0  0  0  0  0
   39.2610   38.2670   26.2060 N   0  0  0  0  0  0  0  0  0  0  0  0
   40.6570   38.5800   24.0240 C   0  0  0  0  0  0  0  0  0  0  0  0
   42.0280   38.4410   24.0590 C   0  0  0  0  0  0  0  0  0  0  0  0
   32.4160   39.3240   21.3380 O   0  0  0  0  0  0  0  0  0  0  0  0
   38.4750   39.0880   24.1360 N   0  0  0  0  0  0  0  0  0  0  0  0
   36.0330   38.6860   24.3330 C   0  0  0  0  0  0  0  0  0  0  0  0
   33.0520   38.4530   22.0150 C   0  0  0  0  0  0  0  0  0  0  0  0
   40.2650   39.2280   22.9510 C   0  0  0  0  0  0  0  0  0  0  0  0
   37.6180   41.4110   25.5990 C   0  0  0  0  0  0  0  0  0  0  0  0
   34.0850   38.6650   22.9960 C   0  0  0  0  0  0  0  0  0  0  0  0
   41.1180   39.5710   21.9730 C   0  0  0  0  0  0  0  0  0  0  0  0
   42.8940   38.7800   23.2100 C   0  0  0  0  0  0  0  0  0  0  0  0
   42.5410   39.1600   22.0960 C   0  0  0  0  0  0  0  0  0  0  0  0
   32.5870   37.1090   21.9800 O   0  0  0  0  0  0  0  0  0  0  0  0
   35.3300   37.6020   24.5250 C   0  0  0  0  0  0  0  0  0  0  0  0
   37.8840   37.7230   25.7480 C   0  0  0  0  0  0  0  0  0  0  0  0
   38.7950   39.5410   23.1200 C   0  0  0  0  0  0  0  0  0  0  0  0
   40.1720   38.1420   25.1990 C   0  0  0  0  0  0  0  0  0  0  0  0
   35.1840   39.8510   23.3150 S   0  0  0  0  0  0  0  0  0  0  0  0
   38.1720   40.4320   22.3790 O   0  0  0  0  0  0  0  0  0  0  0  0
   37.2470   39.9310   25.6400 C   0  0  0  0  0  0  0  0  0  0  0  0
  2 18  1  0
  3 24  1  0
  3 19  1  0
  4  1  1  0
  5  6  1  0
  5 21  1  0
  7 10  2  0
  8  3  1  0
  9 18  1  0
  9  3  1  0
 11 20  1  0
 11  5  2  0
 12 24  1  0
 13 10  1  0
 13 22  1  0
 13  2  1  0
 14 16  2  0
 14 11  1  0
 15  6  2  0
 16 15  1  0
 17 10  1  0
 19  4  1  0
 20  8  1  0
 21  4  1  0
 22  9  1  0
 23 20  2  0
M  END
$$$$

     RDKit          3D

 16 16  0  0  0  0  0  0  0  0999 V2000
   33.7060   39.7860   22.4430 C   0  0  0  0  0  0  0  0  0  0  0  0
   32.5330   38.4830   20.8990 O   0  0  0  0  0  0  0  0  0  0  0  0
   37.9300   38.3360   25.6650 N   0  0  0  0  0  0  0  0  0  0  0  0
   33.2570   38.9760   23.6160 C   0  0  0  0  0  0  0  0  0  0  0  0
   38.5920   41.0410   22.8980 O   0  0  0  0  0  0  0  0  0  0  0  0
   34.6430   38.8160   24.3630 C   0  0  0  0  0  0  0  0  0  0  0  0
   37.9910   38.9900   24.3530 C   0  0  0  0  0  0  0  0  0  0  0  0
   38.0000   40.5260   24.2720 C   0  0  0  0  0  0  0  0  0  0  0  0
   35.1820   37.0760   22.8090 O   0  0  0  0  0  0  0  0  0  0  0  0
   36.7480   41.1480   24.4780 O   0  0  0  0  0  0  0  0  0  0  0  0
   38.8570   41.0580   25.3890 C   0  0  0  0  0  0  0  0  0  0  0  0
   35.2660   39.5090   22.1950 C   0  0  0  0  0  0  0  0  0  0  0  0
   35.6700   38.3870   23.2910 C   0  0  0  0  0  0  0  0  0  0  0  0
   32.9960   39.8560   21.0950 C   0  0  0  0  0  0  0  0  0  0  0  0
   37.2480   38.2940   23.4010 C   0  0  0  0  0  0  0  0  0  0  0  0
   39.0880   42.4950   25.2060 N   0  0  0  0  0  0  0  0  0  0  0  0
  1 14  1  0
  1  4  1  0
  2 14  1  0
  4  6  1  0
  5  8  1  0
  7  3  1  0
  8  7  1  0
  8 10  1  0
  8 11  1  0
 12  1  1  0
 12 13  1  0
 13  9  1  0
 13 15  1  0
 13  6  1  0
 15  7  1  0
 16 11  1  0
M  END
$$$$

     RDKit          3D

 13 14  0  0  0  0  0  0  0  0999 V2000
   37.9370   41.0080   25.4160 O   0  0  0  0  0  0  0  0  0  0  0  0
   37.5250   37.9010   24.5740 C   0  0  0  0  0  0  0  0  0  0  0  0
   37.7090   39.1650   23.6990 C   0  0  0  0  0  0  0  0  0  0  0  0
   38.7250   37.1630   24.5760 O   0  0  0  0  0  0  0  0  0  0  0  0
   37.3870   38.0400   21.6690 O   0  0  0  0  0  0  0  0  0  0  0  0
   37.1460   40.3510   24.4500 C   0  0  0  0  0  0  0  0  0  0  0  0
   36.9050   39.0940   22.3180 C   0  0  0  0  0  0  0  0  0  0  0  0
   35.1930   40.2480   21.0780 C   0  0  0  0  0  0  0  0  0  0  0  0
   35.4900   39.7360   22.4560 C   0  0  0  0  0  0  0  0  0  0  0  0
   34.9100   40.7580   23.3220 O   0  0  0  0  0  0  0  0  0  0  0  0
   39.1620   39.3720   23.3240 C   0  0  0  0  0  0  0  0  0  0  0  0
   35.8190   41.0530   24.3460 C   0  0  0  0  0  0  0  0  0  0  0  0
   36.0290   40.0040   25.0200 O   0  0  0  0  0  0  0  0  0  0  0  0
  2  4  1  0
  3 11  1  0
  3  6  1  0
  3  2  1  0
  6 13  1  0
  6  1  1  0
  7  5  1  0
  7  9  1  0
  7  3  1  0
  9  8  1  0
  9 10  1  0
 12 10  1  0
 12  6  1  0
 12 13  1  0
M  END
$$$$

     RDKit          3D

  9  8  0  0  0  0  0  0  0  0999 V2000
   38.8230   37.3610   24.1680 O   0  0  0  0  0  0  0  0  0  0  0  0
   39.1840   38.5570   24.2150 C   0  0  0  0  0  0  0  0  0  0  0  0
   38.3100   38.9150   20.6220 O   0  0  0  0  0  0  0  0  0  0  0  0
   37.9890   38.8110   21.9700 C   0  0  0  0  0  0  0  0  0  0  0  0
   39.7430   40.4770   22.9580 N   0  0  0  0  0  0  0  0  0  0  0  0
   39.1840   39.2160   22.8420 C   0  0  0  0  0  0  0  0  0  0  0  0
   36.7020   38.6450   22.3040 O   0  0  0  0  0  0  0  0  0  0  0  0
   36.1500   38.1500   20.9350 C   0  0  0  0  0  0  0  0  0  0  0  0
   39.6840   39.1860   25.1360 O   0  0  0  0  0  0  0  0  0  0  0  0
  1  2  2  0
  2  9  1  0
  3  4  2  0
  4  7  1  0
  4  6  1  0
  6  5  1  0
  6  2  1  0
  8  7  1  0
M  END
$$$$

     RDKit          3D

  7  6  0  0  0  0  0  0  0  0999 V2000
   39.0800   39.7560   22.8580 C   0  0  0  0  0  0  0  0  0  0  0  0
   40.8390   39.7980   24.5130 C   0  0  0  0  0  0  0  0  0  0  0  0
   40.1410   37.7800   24.1770 O   0  0  0  0  0  0  0  0  0  0  0  0
   40.1820   39.0990   23.8040 C   0  0  0  0  0  0  0  0  0  0  0  0
   39.4930   41.3080   22.8810 C   0  0  0  0  0  0  0  0  0  0  0  0
   39.3690   41.8140   24.2640 O   0  0  0  0  0  0  0  0  0  0  0  0
   38.5130   41.8810   21.7950 C   0  0  0  0  0  0  0  0  0  0  0  0
  1  5  1  0
  1  4  1  0
  4  3  1  0
  4  2  2  0
  5  7  1  0
  5  6  1  0
M  END
$$$$

     RDKit          3D

 19 19  0  0  0  0  0  0  0  0999 V2000
   36.2780   38.5280   23.2810 C   0  0  0  0  0  0  0  0  0  0  0  0
   36.8580   40.6260   22.3410 O   0  0  0  0  0  0  0  0  0  0  0  0
   30.5790   39.9330   21.4340 O   0  0  0  0  0  0  0  0  0  0  0  0
   39.8840   38.2330   23.9480 C   0  0  0  0  0  0  0  0  0  0  0  0
   38.5630   38.8730   23.7370 C   0  0  0  0  0  0  0  0  0  0  0  0
   39.7900   37.6890   25.3210 N   0  0  0  0  0  0  0  0  0  0  0  0
   35.5630   38.0960   21.9860 C   0  0  0  0  0  0  0  0  0  0  0  0
   36.3500   40.0290   23.6380 C   0  0  0  0  0  0  0  0  0  0  0  0
   31.5940   39.9680   21.6700 P   0  0  0  0  0  0  0  0  0  0  0  0
   34.0230   37.9920   22.2850 C   0  0  0  0  0  0  0  0  0  0  0  0
   32.9550   38.5360   23.2780 C   0  0  0  0  0  0  0  0  0  0  0  0
   32.6760   39.9870   20.4500 O   0  0  0  0  0  0  0  0  0  0  0  0
   41.0620   39.2360   23.6830 C   0  0  0  0  0  0  0  0  0  0  0  0
   42.0490   39.2050   24.4620 O   0  0  0  0  0  0  0  0  0  0  0  0
   32.4120   39.8800   22.9280 C   0  0  0  0  0  0  0  0  0  0  0  0
   37.5500   37.9350   23.3360 O   0  0  0  0  0  0  0  0  0  0  0  0
   31.0970   38.3490   21.4730 O   0  0  0  0  0  0  0  0  0  0  0  0
   35.2920   39.1510   24.1980 C   0  0  0  0  0  0  0  0  0  0  0  0
   40.9840   39.9660   22.6780 O   0  0  0  0  0  0  0  0  0  0  0  0
  1  7  1  0
  1 16  1  0
  1  8  1  0
  1 18  1  0
  3 17  1  0
  3  9  1  0
  4  6  1  0
  5  4  1  0
  7 10  1  0
  8  2  1  0
  8 18  1  0
  9 12  1  0
  9 15  1  0
 10 11  1  0
 13  4  1  0
 13 14  1  0
 15 11  1  0
 16  5  1  0
 19 13  2  0
M  END
$$$$

     RDKit          3D

 15 16  0  0  0  0  0  0  0  0999 V2000
   36.9850   40.4440   23.0200 C   0  0  0  0  0  0  0  0  0  0  0  0
   35.6310   38.7720   20.3720 O   0  0  0  0  0  0  0  0  0  0  0  0
   36.8190   38.5110   24.4400 C   0  0  0  0  0  0  0  0  0  0  0  0
   37.4860   40.1170   20.5760 C   0  0  0  0  0  0  0  0  0  0  0  0
   37.4150   40.9410   21.6450 C   0  0  0  0  0  0  0  0  0  0  0  0
   37.1130   36.6280   25.9150 C   0  0  0  0  0  0  0  0  0  0  0  0
   36.7220   41.2120   24.1060 C   0  0  0  0  0  0  0  0  0  0  0  0
   37.1880   37.1800   24.5810 N   0  0  0  0  0  0  0  0  0  0  0  0
   39.1330   42.1600   20.7140 O   0  0  0  0  0  0  0  0  0  0  0  0
   36.4290   40.6570   25.2930 C   0  0  0  0  0  0  0  0  0  0  0  0
   36.4680   39.3490   25.4800 C   0  0  0  0  0  0  0  0  0  0  0  0
   37.1680   38.2360   22.0090 O   0  0  0  0  0  0  0  0  0  0  0  0
   38.0590   42.3040   21.4570 C   0  0  0  0  0  0  0  0  0  0  0  0
   36.9310   39.0570   23.1860 C   0  0  0  0  0  0  0  0  0  0  0  0
   36.7100   38.8800   20.8650 C   0  0  0  0  0  0  0  0  0  0  0  0
  1 14  2  0
  1  7  1  0
  2 15  2  0
  3  8  1  0
  3 11  2  0
  4 15  1  0
  4  5  1  0
  5 13  1  0
  5  1  1  0
  7 10  2  0
  8  6  1  0
  9 13  1  0
 10 11  1  0
 12 14  1  0
 14  3  1  0
 15 12  1  0
M  END
$$$$

     RDKit          3D

  8  8  0  0  0  0  0  0  0  0999 V2000
   38.5070   39.1170   22.7650 N   0  0  0  0  0  0  0  0  0  0  0  0
   38.9950   40.5700   20.5140 C   0  0  0  0  0  0  0  0  0  0  0  0
   37.6870   38.7460   21.6750 C   0  0  0  0  0  0  0  0  0  0  0  0
   39.1130   38.5410   24.1180 C   0  0  0  0  0  0  0  0  0  0  0  0
   39.7630   39.3030   25.1090 N   0  0  0  0  0  0  0  0  0  0  0  0
   39.5700   40.2610   22.0720 S   0  0  0  0  0  0  0  0  0  0  0  0
   36.5470   38.0440   21.8990 O   0  0  0  0  0  0  0  0  0  0  0  0
   37.6340   39.3690   20.0740 S   0  0  0  0  0  0  0  0  0  0  0  0
  1  4  1  0
  2  6  1  0
  3  7  2  0
  3  1  1  0
  4  5  1  0
  6  1  1  0
  8  2  1  0
  8  3  1  0
M  END
$$$$

     RDKit          3D

 12 12  0  0  0  0  0  0  0  0999 V2000
   37.8080   37.6000   23.1770 O   0  0  0  0  0  0  0  0  0  0  0  0
   35.5330   42.4220   22.9160 C   0  0  0  0  0  0  0  0  0  0  0  0
   37.4670   40.5780   22.7290 C   0  0  0  0  0  0  0  0  0  0  0  0
   37.4330   39.4660   23.7990 C   0  0  0  0  0  0  0  0  0  0  0  0
   38.3970   41.7800   23.0400 O   0  0  0  0  0  0  0  0  0  0  0  0
   35.5160   38.0570   21.0480 O   0  0  0  0  0  0  0  0  0  0  0  0
   35.7950   38.5710   22.4420 C   0  0  0  0  0  0  0  0  0  0  0  0
   36.0450   41.1030   22.4410 C   0  0  0  0  0  0  0  0  0  0  0  0
   37.3200   38.5570   22.5270 C   0  0  0  0  0  0  0  0  0  0  0  0
   35.1480   39.9110   22.1480 C   0  0  0  0  0  0  0  0  0  0  0  0
   38.4900   39.7210   24.7750 O   0  0  0  0  0  0  0  0  0  0  0  0
   33.8100   39.7470   22.8470 C   0  0  0  0  0  0  0  0  0  0  0  0
  3  5  1  0
  3  4  1  0
  4 11  1  0
  7  6  1  0
  7  9  1  0
  8  3  1  0
  8  2  1  0
  9  1  1  0
  9  4  1  0
 10  8  1  0
 10  7  1  0
 10 12  1  0
M  END
$$$$

     RDKit          3D

 20 22  0  0  0  0  0  0  0  0999 V2000
   39.3610   42.5630   26.6340 N   0  0  0  0  0  0  0  0  0  0  0  0
   34.8970   37.5170   22.0990 C   0  0  0  0  0  0  0  0  0  0  0  0
   36.7990   38.7590   22.8080 C   0  0  0  0  0  0  0  0  0  0  0  0
   37.9460   38.8800   23.9880 C   0  0  0  0  0  0  0  0  0  0  0  0
   35.2720   38.9410   22.5850 C   0  0  0  0  0  0  0  0  0  0  0  0
   40.7180   44.6240   26.2350 C   0  0  0  0  0  0  0  0  0  0  0  0
   37.8800   42.5740   24.9750 O   0  0  0  0  0  0  0  0  0  0  0  0
   40.5760   40.7040   24.5740 C   0  0  0  0  0  0  0  0  0  0  0  0
   39.1590   38.5690   23.7210 C   0  0  0  0  0  0  0  0  0  0  0  0
   36.1060   40.1090   24.9930 C   0  0  0  0  0  0  0  0  0  0  0  0
   39.4200   44.0550   26.7780 C   0  0  0  0  0  0  0  0  0  0  0  0
   37.6730   39.6230   25.2100 C   0  0  0  0  0  0  0  0  0  0  0  0
   39.9220   37.6450   24.3610 C   0  0  0  0  0  0  0  0  0  0  0  0
   37.6070   38.0600   25.0610 C   0  0  0  0  0  0  0  0  0  0  0  0
   38.5970   36.8510   25.4310 S   0  0  0  0  0  0  0  0  0  0  0  0
   34.9510   39.9540   21.6820 O   0  0  0  0  0  0  0  0  0  0  0  0
   35.6310   39.1190   23.9470 O   0  0  0  0  0  0  0  0  0  0  0  0
   37.6320   38.6330   21.2610 S   0  0  0  0  0  0  0  0  0  0  0  0
   39.2010   40.4730   25.3470 C   0  0  0  0  0  0  0  0  0  0  0  0
   38.7530   41.9260   25.5600 C   0  0  0  0  0  0  0  0  0  0  0  0
  1 11  1  0
  3 18  1  0
  3  4  1  0
  4  9  1  0
  4 14  1  0
  4 12  1  0
  5  2  1  0
  5  3  1  0
  5 17  1  0
  6 11  1  0
  7 20  2  0
  9 13  1  0
 10 12  1  0
 12 19  1  0
 13 15  1  0
 14 12  1  0
 14 15  1  0
 16  5  1  0
 17 10  1  0
 19  8  1  0
 19 20  1  0
 20  1  1  0
M  END
$$$$

     RDKit          3D

 26 26  0  0  0  0  0  0  0  0999 V2000
   31.3760   40.5470   19.8570 O   0  0  0  0  0  0  0  0  0  0  0  0
   35.6290   40.1810   25.2650 C   0  0  0  0  0  0  0  0  0  0  0  0
   40.2730   40.6370   25.3830 C   0  0  0  0  0  0  0  0  0  0  0  0
   41.4200   41.4520   23.3260 C   0  0  0  0  0  0  0  0  0  0  0  0
   39.5130   39.8340   24.7420 C   0  0  0  0  0  0  0  0  0  0  0  0
   38.5110   36.5630   25.4290 O   0  0  0  0  0  0  0  0  0  0  0  0
   35.7430   39.1650   21.9260 O   0  0  0  0  0  0  0  0  0  0  0  0
   41.1470   41.5750   24.7530 C   0  0  0  0  0  0  0  0  0  0  0  0
   36.4820   40.1020   22.7060 C   0  0  0  0  0  0  0  0  0  0  0  0
   39.8040   38.5480   24.8250 C   0  0  0  0  0  0  0  0  0  0  0  0
   41.4190   42.5030   25.4540 C   0  0  0  0  0  0  0  0  0  0  0  0
   33.7190   39.7320   22.7880 C   0  0  0  0  0  0  0  0  0  0  0  0
   40.9110   38.1500   23.9010 O   0  0  0  0  0  0  0  0  0  0  0  0
   36.5030   41.3550   22.6090 C   0  0  0  0  0  0  0  0  0  0  0  0
   34.5990   39.9000   21.7110 C   0  0  0  0  0  0  0  0  0  0  0  0
   31.8450   39.4040   19.9560 C   0  0  0  0  0  0  0  0  0  0  0  0
   38.6170   37.6330   24.6050 C   0  0  0  0  0  0  0  0  0  0  0  0
   37.6840   38.1160   23.6190 C   0  0  0  0  0  0  0  0  0  0  0  0
   34.3410   40.6650   20.7460 O   0  0  0  0  0  0  0  0  0  0  0  0
   37.3830   39.4940   23.7610 C   0  0  0  0  0  0  0  0  0  0  0  0
   32.4230   39.6360   22.5190 C   0  0  0  0  0  0  0  0  0  0  0  0
   37.7800   36.9800   26.6020 C   0  0  0  0  0  0  0  0  0  0  0  0
   32.0270   38.8570   21.3740 C   0  0  0  0  0  0  0  0  0  0  0  0
   32.1850   38.6510   18.9170 O   0  0  0  0  0  0  0  0  0  0  0  0
   36.9810   39.7860   25.0640 O   0  0  0  0  0  0  0  0  0  0  0  0
   38.6410   40.1880   23.8430 O   0  0  0  0  0  0  0  0  0  0  0  0
  1 16  1  0
  4  8  1  0
  5 10  1  0
  5  3  1  0
  6 22  1  0
  7  9  1  0
  8  3  1  0
  8 11  2  0
 10 13  1  0
 14  9  2  0
 15  7  1  0
 15 12  1  0
 16 23  1  0
 17 10  1  0
 17  6  1  0
 18 20  1  0
 18 17  1  0
 19 15  2  0
 20  9  1  0
 20 26  1  0
 20 25  1  0
 21 12  1  0
 23 21  1  0
 24 16  2  0
 25  2  1  0
 26  5  1  0
M  END
$$$$

     RDKit          3D

 10  9  0  0  0  0  0  0  0  0999 V2000
   37.2790   40.7640   23.4370 C   0  0  0  0  0  0  0  0  0  0  0  0
   36.6770   39.5620   22.5300 C   0  0  0  0  0  0  0  0  0  0  0  0
   38.6990   38.9310   23.7100 C   0  0  0  0  0  0  0  0  0  0  0  0
   38.0560   40.0360   24.3720 O   0  0  0  0  0  0  0  0  0  0  0  0
   39.5250   39.3170   22.8560 O   0  0  0  0  0  0  0  0  0  0  0  0
   36.8930   42.2520   23.8490 C   0  0  0  0  0  0  0  0  0  0  0  0
   36.3110   42.8860   22.8670 O   0  0  0  0  0  0  0  0  0  0  0  0
   36.4750   38.0170   22.3830 C   0  0  0  0  0  0  0  0  0  0  0  0
   36.9440   42.6080   25.0340 O   0  0  0  0  0  0  0  0  0  0  0  0
   38.7330   37.7680   24.1730 O   0  0  0  0  0  0  0  0  0  0  0  0
  1  2  1  0
  1  6  1  0
  1  4  1  0
  3 10  1  0
  3  4  1  0
  5  3  2  0
  6  9  1  0
  7  6  2  0
  8  2  1  0
M  END
$$$$

     RDKit          3D

 21 21  0  0  0  0  0  0  0  0999 V2000
   37.4430   41.4510   25.5330 O   0  0  0  0  0  0  0  0  0  0  0  0
   37.6420   36.8370   31.7990 O   0  0  0  0  0  0  0  0  0  0  0  0
   38.2990   38.0630   24.2680 C   0  0  0  0  0  0  0  0  0  0  0  0
   34.1000   37.6380   23.4050 C   0  0  0  0  0  0  0  0  0  0  0  0
   38.8990   42.5900   24.1390 O   0  0  0  0  0  0  0  0  0  0  0  0
   35.4230   37.7090   23.9460 C   0  0  0  0  0  0  0  0  0  0  0  0
   37.5420   38.1720   22.9430 C   0  0  0  0  0  0  0  0  0  0  0  0
   38.0080   41.4970   24.2950 C   0  0  0  0  0  0  0  0  0  0  0  0
   35.3500   38.8060   21.9410 N   0  0  0  0  0  0  0  0  0  0  0  0
   37.6630   37.6660   25.6090 C   0  0  0  0  0  0  0  0  0  0  0  0
   38.4390   38.0190   26.8880 C   0  0  0  0  0  0  0  0  0  0  0  0
   38.6820   39.4730   24.0430 C   0  0  0  0  0  0  0  0  0  0  0  0
   37.2050   39.1490   32.5300 C   0  0  0  0  0  0  0  0  0  0  0  0
   37.8820   37.1450   27.9800 C   0  0  0  0  0  0  0  0  0  0  0  0
   38.2320   37.3890   29.3640 N   0  0  0  0  0  0  0  0  0  0  0  0
   37.6420   38.0220   31.5600 C   0  0  0  0  0  0  0  0  0  0  0  0
   37.9850   40.5440   23.3770 C   0  0  0  0  0  0  0  0  0  0  0  0
   38.1350   38.3160   30.3260 C   0  0  0  0  0  0  0  0  0  0  0  0
   39.2720   39.0160   26.9690 O   0  0  0  0  0  0  0  0  0  0  0  0
   34.0020   38.3480   22.2030 C   0  0  0  0  0  0  0  0  0  0  0  0
   36.1020   38.3040   22.9800 C   0  0  0  0  0  0  0  0  0  0  0  0
  3  7  1  0
  3 10  1  0
  4  6  1  0
  5  8  2  0
  7 21  1  0
  8  1  1  0
  9 20  1  0
  9 21  2  0
 10 11  1  0
 11 19  1  0
 11 14  2  3
 12  3  1  0
 14 15  1  0
 15 18  1  0
 16  2  2  0
 16 13  1  0
 17 12  1  0
 17  8  1  0
 18 16  1  0
 20  4  2  0
 21  6  1  0
M  END
$$$$
