
     RDKit          3D

 15 15  0  0  0  0  0  0  0  0999 V2000
   38.6490   40.2880   23.8320 O   0  0  0  0  0  0  0  0  0  0  0  0
   40.9590   42.0730   25.1800 O   0  0  0  0  0  0  0  0  0  0  0  0
   37.5340   41.6640   21.3010 O   0  0  0  0  0  0  0  0  0  0  0  0
   39.1780   39.5960   25.0110 C   0  0  0  0  0  0  0  0  0  0  0  0
   38.7990   38.8090   21.5410 C   0  0  0  0  0  0  0  0  0  0  0  0
   37.8930   38.3750   20.7420 O   0  0  0  0  0  0  0  0  0  0  0  0
   36.4230   39.6600   21.7700 O   0  0  0  0  0  0  0  0  0  0  0  0
   40.0790   41.6640   25.9720 C   0  0  0  0  0  0  0  0  0  0  0  0
   40.0200   40.1590   26.2100 C   0  0  0  0  0  0  0  0  0  0  0  0
   40.0800   38.9130   21.1890 O   0  0  0  0  0  0  0  0  0  0  0  0
   39.2040   42.3880   26.5060 O   0  0  0  0  0  0  0  0  0  0  0  0
   36.5600   40.9730   22.1030 C   0  0  0  0  0  0  0  0  0  0  0  0
   38.3820   38.5780   25.5050 O   0  0  0  0  0  0  0  0  0  0  0  0
   37.0540   39.6530   22.8960 C   0  0  0  0  0  0  0  0  0  0  0  0
   38.4120   39.1350   22.9880 C   0  0  0  0  0  0  0  0  0  0  0  0
  1  4  1  0
  2  8  2  0
  4 13  2  0
  4  9  1  0
  6  5  2  0
  7 12  1  0
  7 14  1  0
  8  9  1  0
  8 11  1  0
 10  5  1  0
 12  3  1  0
 12 14  1  0
 14 15  1  0
 15  5  1  0
 15  1  1  0
M  END
$$$$

     RDKit          3D

 20 21  0  0  0  0  0  0  0  0999 V2000
   39.7370   38.1880   24.6750 C   0  0  0  0  0  0  0  0  0  0  0  0
   39.0380   39.3430   24.0080 C   0  0  0  0  0  0  0  0  0  0  0  0
   39.0420   38.1310   19.6020 C   0  0  0  0  0  0  0  0  0  0  0  0
   41.8320   41.8500   24.0550 C   0  0  0  0  0  0  0  0  0  0  0  0
   37.9950   38.5990   21.6740 C   0  0  0  0  0  0  0  0  0  0  0  0
   39.2270   38.5680   20.9230 C   0  0  0  0  0  0  0  0  0  0  0  0
   37.4420   41.0780   24.4240 F   0  0  0  0  0  0  0  0  0  0  0  0
   39.6330   41.4590   25.0200 C   0  0  0  0  0  0  0  0  0  0  0  0
   41.5130   42.1160   26.7730 C   0  0  0  0  0  0  0  0  0  0  0  0
   40.0830   40.0190   23.3390 O   0  0  0  0  0  0  0  0  0  0  0  0
   41.2580   42.7870   22.9730 C   0  0  0  0  0  0  0  0  0  0  0  0
   41.7650   42.6530   25.3800 C   0  0  0  0  0  0  0  0  0  0  0  0
   38.0910   39.7630   26.1150 C   0  0  0  0  0  0  0  0  0  0  0  0
   40.7420   40.7310   24.3780 C   0  0  0  0  0  0  0  0  0  0  0  0
   37.9790   38.8780   23.0840 N   0  0  0  0  0  0  0  0  0  0  0  0
   38.4890   40.4280   24.8990 C   0  0  0  0  0  0  0  0  0  0  0  0
   37.8060   37.7690   19.0820 C   0  0  0  0  0  0  0  0  0  0  0  0
   36.7570   38.2900   21.1180 C   0  0  0  0  0  0  0  0  0  0  0  0
   39.3960   42.6490   25.3470 O   0  0  0  0  0  0  0  0  0  0  0  0
   36.6550   37.8330   19.8250 C   0  0  0  0  0  0  0  0  0  0  0  0
  2  1  1  0
  2 16  1  0
  3  6  1  0
  4 11  1  0
  4 12  1  0
  5 15  1  0
  6  5  2  0
  7 16  1  0
  8 19  2  0
 10  2  1  0
 10 14  1  0
 12  9  1  0
 14  4  1  0
 14  8  1  0
 15  2  1  0
 16  8  1  0
 16 13  1  0
 17  3  2  0
 17 20  1  0
 18  5  1  0
 20 18  2  0
M  END
$$$$

     RDKit          3D

  7  8  0  0  0  0  0  0  0  0999 V2000
   38.8950   38.0400   23.4440 N   0  0  0  0  0  0  0  0  0  0  0  0
   39.3230   40.9770   23.7810 C   0  0  0  0  0  0  0  0  0  0  0  0
   37.9360   40.4190   23.5280 C   0  0  0  0  0  0  0  0  0  0  0  0
   40.3240   38.7020   23.5980 C   0  0  0  0  0  0  0  0  0  0  0  0
   37.6520   38.9130   23.5390 C   0  0  0  0  0  0  0  0  0  0  0  0
   38.3990   40.7160   24.7820 O   0  0  0  0  0  0  0  0  0  0  0  0
   40.3060   40.1210   22.9610 C   0  0  0  0  0  0  0  0  0  0  0  0
  1  5  1  0
  1  4  1  0
  2  7  1  0
  2  6  1  0
  3  5  1  0
  3  2  1  0
  3  6  1  0
  7  4  1  0
M  END
$$$$

     RDKit          3D

 17 18  0  0  0  0  0  0  0  0999 V2000
   37.8560   42.5640   23.8700 C   0  0  0  0  0  0  0  0  0  0  0  0
   40.1610   42.2380   24.3780 N   0  0  0  0  0  0  0  0  0  0  0  0
   39.2140   39.4390   22.6780 N   0  0  0  0  0  0  0  0  0  0  0  0
   41.3610   40.1720   23.5510 C   0  0  0  0  0  0  0  0  0  0  0  0
   35.8010   42.1850   22.3570 C   0  0  0  0  0  0  0  0  0  0  0  0
   42.1900   40.2240   24.5790 F   0  0  0  0  0  0  0  0  0  0  0  0
   35.8000   39.6430   22.9840 S   0  0  0  0  0  0  0  0  0  0  0  0
   40.1750   41.0870   23.7530 C   0  0  0  0  0  0  0  0  0  0  0  0
   37.8390   41.3420   23.2670 C   0  0  0  0  0  0  0  0  0  0  0  0
   34.4220   39.7720   22.9380 O   0  0  0  0  0  0  0  0  0  0  0  0
   36.4200   38.6100   21.7810 C   0  0  0  0  0  0  0  0  0  0  0  0
   39.0080   40.6240   23.1950 C   0  0  0  0  0  0  0  0  0  0  0  0
   36.1620   39.4010   24.4170 O   0  0  0  0  0  0  0  0  0  0  0  0
   42.2380   40.4750   22.3500 C   0  0  0  0  0  0  0  0  0  0  0  0
   39.0500   42.9760   24.4890 C   0  0  0  0  0  0  0  0  0  0  0  0
   36.5690   41.0520   22.7020 N   0  0  0  0  0  0  0  0  0  0  0  0
   40.5300   38.9130   23.2570 C   0  0  0  0  0  0  0  0  0  0  0  0
  1 15  1  0
  2 15  2  0
  3 12  1  0
  3 17  1  0
  4 14  1  0
  4  8  1  0
  4  6  1  0
  5 16  1  0
  7 13  2  0
  8  2  1  0
  9  1  2  0
 10  7  2  0
 11  7  1  0
 12  9  1  0
 12  8  2  0
 16  7  1  0
 16  9  1  0
 17  4  1  0
M  END
$$$$

     RDKit          3D

  9  9  0  0  0  0  0  0  0  0999 V2000
   38.6530   38.9890   22.3430 C   0  0  0  0  0  0  0  0  0  0  0  0
   37.4800   39.9390   22.7120 C   0  0  0  0  0  0  0  0  0  0  0  0
   40.3970   40.5080   24.4260 C   0  0  0  0  0  0  0  0  0  0  0  0
   39.1810   38.4760   23.7230 C   0  0  0  0  0  0  0  0  0  0  0  0
   41.2040   41.2210   25.0380 O   0  0  0  0  0  0  0  0  0  0  0  0
   40.4870   39.0970   24.2100 O   0  0  0  0  0  0  0  0  0  0  0  0
   37.8000   40.7240   23.9680 C   0  0  0  0  0  0  0  0  0  0  0  0
   38.1900   37.9630   21.2560 C   0  0  0  0  0  0  0  0  0  0  0  0
   39.2280   41.1900   23.8800 O   0  0  0  0  0  0  0  0  0  0  0  0
  1  8  1  0
  1  2  1  0
  1  4  1  0
  2  7  1  0
  3  5  2  0
  4  6  1  0
  6  3  1  0
  9  7  1  0
  9  3  1  0
M  END
$$$$

     RDKit          3D

  7  7  0  0  0  0  0  0  0  0999 V2000
   39.7350   39.4530   22.9300 C   0  0  0  0  0  0  0  0  0  0  0  0
   37.6120   40.3760   22.6170 C   0  0  0  0  0  0  0  0  0  0  0  0
   38.5750   39.1720   22.6780 C   0  0  0  0  0  0  0  0  0  0  0  0
   40.2700   40.7130   23.2310 C   0  0  0  0  0  0  0  0  0  0  0  0
   38.1490   41.5440   23.0440 C   0  0  0  0  0  0  0  0  0  0  0  0
   38.2660   37.9480   22.6200 O   0  0  0  0  0  0  0  0  0  0  0  0
   39.4970   41.8630   23.3910 C   0  0  0  0  0  0  0  0  0  0  0  0
  1  4  2  0
  2  3  1  0
  2  5  2  0
  3  1  1  0
  4  7  1  0
  5  7  1  0
  6  3  2  0
M  END
$$$$

     RDKit          3D

  5  4  0  0  0  0  0  0  0  0999 V2000
   39.4570   39.5450   23.4290 C   0  0  0  0  0  0  0  0  0  0  0  0
   40.7720   39.2910   22.8420 C   0  0  0  0  0  0  0  0  0  0  0  0
   38.5270   40.6720   22.8500 C   0  0  0  0  0  0  0  0  0  0  0  0
   40.0990   40.2400   24.6830 C   0  0  0  0  0  0  0  0  0  0  0  0
   38.7710   38.3400   22.8160 O   0  0  0  0  0  0  0  0  0  0  0  0
  1  4  1  0
  2  1  1  0
  3  1  1  0
  5  1  1  0
M  END
$$$$

     RDKit          3D

 13 12  0  0  0  0  0  0  0  0999 V2000
   38.1710   40.1490   24.4120 O   0  0  0  0  0  0  0  0  0  0  0  0
   40.7090   40.5490   25.5610 C   0  0  0  0  0  0  0  0  0  0  0  0
   36.9570   42.4900   21.9820 C   0  0  0  0  0  0  0  0  0  0  0  0
   41.2310   41.1890   25.9070 O   0  0  0  0  0  0  0  0  0  0  0  0
   39.0240   42.0810   23.2780 O   0  0  0  0  0  0  0  0  0  0  0  0
   35.7270   41.4490   22.2180 C   0  0  0  0  0  0  0  0  0  0  0  0
   39.0210   38.9710   24.4260 C   0  0  0  0  0  0  0  0  0  0  0  0
   37.7460   42.1810   22.9570 C   0  0  0  0  0  0  0  0  0  0  0  0
   40.5110   39.2490   24.7080 C   0  0  0  0  0  0  0  0  0  0  0  0
   38.9810   41.3110   24.5710 P   0  0  0  0  0  0  0  0  0  0  0  0
   37.5400   41.3010   20.8540 C   0  0  0  0  0  0  0  0  0  0  0  0
   40.6070   41.6470   24.6260 C   0  0  0  0  0  0  0  0  0  0  0  0
   40.9830   38.0130   25.2480 O   0  0  0  0  0  0  0  0  0  0  0  0
  1  7  1  0
  1 10  1  0
  2 12  1  0
  2  4  1  0
  3  6  1  0
  3  8  1  0
  5 10  1  0
  7  9  1  0
  8  5  1  0
  9 13  1  0
  9  2  1  0
 11  3  1  0
M  END
$$$$

     RDKit          3D

  9  8  0  0  0  0  0  0  0  0999 V2000
   40.0460   40.9520   23.8140 C   0  0  0  0  0  0  0  0  0  0  0  0
   41.4750   39.4570   22.9240 C   0  0  0  0  0  0  0  0  0  0  0  0
   40.8970   38.3910   22.6020 O   0  0  0  0  0  0  0  0  0  0  0  0
   41.8700   41.0090   21.3420 O   0  0  0  0  0  0  0  0  0  0  0  0
   42.5240   39.7480   23.5280 O   0  0  0  0  0  0  0  0  0  0  0  0
   40.3530   40.3050   25.1260 O   0  0  0  0  0  0  0  0  0  0  0  0
   38.3410   39.1670   23.9720 O   0  0  0  0  0  0  0  0  0  0  0  0
   40.8990   40.7200   22.4010 C   0  0  0  0  0  0  0  0  0  0  0  0
   38.5580   40.5680   23.5380 C   0  0  0  0  0  0  0  0  0  0  0  0
  1  6  1  0
  2  5  1  0
  3  2  2  0
  8  4  1  0
  8  2  1  0
  8  1  1  0
  9  1  1  0
  9  7  1  0
M  END
$$$$

     RDKit          3D

 25 26  0  0  0  0  0  0  0  0999 V2000
   34.9070   36.5240   23.7880 O   0  0  0  0  0  0  0  0  0  0  0  0
   42.0340   41.3140   22.9660 C   0  0  0  0  0  0  0  0  0  0  0  0
   40.3980   41.2050   21.3570 O   0  0  0  0  0  0  0  0  0  0  0  0
   42.8310   41.5250   21.8250 O   0  0  0  0  0  0  0  0  0  0  0  0
   39.5030   38.7370   22.2300 N   0  0  0  0  0  0  0  0  0  0  0  0
   39.6300   37.9210   26.2670 C   0  0  0  0  0  0  0  0  0  0  0  0
   41.3960   39.1570   24.3210 N   0  0  0  0  0  0  0  0  0  0  0  0
   37.1250   39.0870   22.5140 C   0  0  0  0  0  0  0  0  0  0  0  0
   38.7450   39.1960   26.5070 C   0  0  0  0  0  0  0  0  0  0  0  0
   36.0710   38.5570   23.3610 C   0  0  0  0  0  0  0  0  0  0  0  0
   33.3680   37.2350   21.6280 C   0  0  0  0  0  0  0  0  0  0  0  0
   37.5340   38.8890   25.5890 C   0  0  0  0  0  0  0  0  0  0  0  0
   35.6360   38.2310   20.8030 C   0  0  0  0  0  0  0  0  0  0  0  0
   37.3980   37.0250   25.8460 O   0  0  0  0  0  0  0  0  0  0  0  0
   38.7500   40.8090   23.1510 O   0  0  0  0  0  0  0  0  0  0  0  0
   38.5680   36.7680   26.6580 C   0  0  0  0  0  0  0  0  0  0  0  0
   40.8610   38.9410   22.9330 C   0  0  0  0  0  0  0  0  0  0  0  0
   38.5980   39.6720   22.6440 C   0  0  0  0  0  0  0  0  0  0  0  0
   35.2860   37.5490   23.0200 C   0  0  0  0  0  0  0  0  0  0  0  0
   36.7680   38.9210   21.2240 C   0  0  0  0  0  0  0  0  0  0  0  0
   41.1740   40.2970   22.2160 C   0  0  0  0  0  0  0  0  0  0  0  0
   34.8200   37.6810   21.7750 C   0  0  0  0  0  0  0  0  0  0  0  0
   36.8490   40.2340   25.2830 N   0  0  0  0  0  0  0  0  0  0  0  0
   36.1980   38.9660   24.9800 C   0  0  0  0  0  0  0  0  0  0  0  0
   32.4040   36.9300   22.5170 O   0  0  0  0  0  0  0  0  0  0  0  0
  4  2  1  0
  5 18  1  0
  5 17  1  0
  6  9  1  0
  6 16  1  0
  8 18  1  0
  8 10  1  0
 11 22  1  0
 11 25  1  0
 12  9  1  0
 13 20  1  0
 13 22  2  0
 14 16  1  0
 17  7  1  0
 18 15  2  0
 19 10  2  0
 19  1  1  0
 20  8  2  0
 21  3  1  0
 21 17  1  0
 21  2  1  0
 22 19  1  0
 23 12  1  0
 24 10  1  0
 24 23  1  0
 24 12  1  0
M  END
$$$$

     RDKit          3D

  9  9  0  0  0  0  0  0  0  0999 V2000
   41.8340   38.9770   23.7390 O   0  0  0  0  0  0  0  0  0  0  0  0
   40.4520   42.3140   23.4270 C   0  0  0  0  0  0  0  0  0  0  0  0
   39.0740   41.9710   23.5270 C   0  0  0  0  0  0  0  0  0  0  0  0
   41.4830   41.2870   23.3650 C   0  0  0  0  0  0  0  0  0  0  0  0
   39.6410   39.6210   23.6460 C   0  0  0  0  0  0  0  0  0  0  0  0
   38.6650   40.6550   23.6030 C   0  0  0  0  0  0  0  0  0  0  0  0
   39.3090   38.3730   23.7750 O   0  0  0  0  0  0  0  0  0  0  0  0
   37.3130   40.4200   23.4310 O   0  0  0  0  0  0  0  0  0  0  0  0
   41.0450   39.8960   23.5710 C   0  0  0  0  0  0  0  0  0  0  0  0
  2  3  2  0
  3  6  1  0
  4  2  1  0
  4  9  1  0
  5  7  1  0
  6  5  2  0
  8  6  1  0
  9  5  1  0
  9  1  2  0
M  END
$$$$

     RDKit          3D

  7  6  0  0  0  0  0  0  0  0999 V2000
   41.0070   38.3820   23.6170 C   0  0  0  0  0  0  0  0  0  0  0  0
   40.6850   39.4920   21.4830 O   0  0  0  0  0  0  0  0  0  0  0  0
   39.5720   40.0290   24.6380 O   0  0  0  0  0  0  0  0  0  0  0  0
   39.6310   39.0670   23.8070 C   0  0  0  0  0  0  0  0  0  0  0  0
   38.5150   38.7050   23.0180 O   0  0  0  0  0  0  0  0  0  0  0  0
   41.6910   39.0210   22.4130 C   0  0  0  0  0  0  0  0  0  0  0  0
   42.6810   39.7910   22.7540 N   0  0  0  0  0  0  0  0  0  0  0  0
  1  4  1  0
  4  3  1  0
  5  4  2  0
  6  2  1  0
  6  7  1  0
  6  1  1  0
M  END
$$$$

     RDKit          3D

  8  8  0  0  0  0  0  0  0  0999 V2000
   37.8370   39.0750   20.7530 O   0  0  0  0  0  0  0  0  0  0  0  0
   39.1000   38.7270   21.1830 C   0  0  0  0  0  0  0  0  0  0  0  0
   38.5400   40.8110   24.7100 N   0  0  0  0  0  0  0  0  0  0  0  0
   38.4820   37.9890   22.4170 C   0  0  0  0  0  0  0  0  0  0  0  0
   38.6640   40.2230   23.3770 C   0  0  0  0  0  0  0  0  0  0  0  0
   40.1350   40.3030   22.9570 C   0  0  0  0  0  0  0  0  0  0  0  0
   40.2470   39.7070   21.5170 C   0  0  0  0  0  0  0  0  0  0  0  0
   38.2660   38.8160   23.6180 C   0  0  0  0  0  0  0  0  0  0  0  0
  2  1  1  0
  2  7  1  0
  2  4  1  0
  4  8  1  0
  5  8  1  0
  5  3  1  0
  6  5  1  0
  7  6  1  0
M  END
$$$$

     RDKit          3D

  3  2  0  0  0  0  0  0  0  0999 V2000
   94.5650   75.3000  -25.6000 C   0  0  0  0  0  0  0  0  0  0  0  0
   95.5790   74.0690  -25.5780 C   0  0  0  0  0  0  0  0  0  0  0  0
   95.0510   75.8020  -26.6570 C   0  0  0  0  0  0  0  0  0  0  0  0
  1  2  1  0
  3  1  1  0
M  END
$$$$

     RDKit          3D

  9  9  0  0  0  0  0  0  0  0999 V2000
   38.1670   40.8140   22.6530 C   0  0  0  0  0  0  0  0  0  0  0  0
   39.6200   39.0250   23.9040 C   0  0  0  0  0  0  0  0  0  0  0  0
   39.2140   40.4850   23.6940 C   0  0  0  0  0  0  0  0  0  0  0  0
   38.0430   38.3530   22.1180 C   0  0  0  0  0  0  0  0  0  0  0  0
   39.4680   38.1860   22.6530 C   0  0  0  0  0  0  0  0  0  0  0  0
   36.3560   41.7560   21.5520 O   0  0  0  0  0  0  0  0  0  0  0  0
   37.8470   39.7590   21.6130 C   0  0  0  0  0  0  0  0  0  0  0  0
   36.7640   41.0340   22.8000 C   0  0  0  0  0  0  0  0  0  0  0  0
   38.8390   42.1540   22.2080 C   0  0  0  0  0  0  0  0  0  0  0  0
  1  8  1  0
  1  3  1  0
  3  2  1  0
  4  5  1  0
  5  2  1  0
  6  8  1  0
  7  4  1  0
  7  1  1  0
  9  1  1  0
M  END
$$$$

     RDKit          3D

 14 14  0  0  0  0  0  0  0  0999 V2000
   39.2140   39.0130   24.5430 N   0  0  0  0  0  0  0  0  0  0  0  0
   41.2760   40.0090   23.5260 C   0  0  0  0  0  0  0  0  0  0  0  0
   37.7930   41.2580   23.7720 C   0  0  0  0  0  0  0  0  0  0  0  0
   40.2650   39.9100   24.4810 C   0  0  0  0  0  0  0  0  0  0  0  0
   38.7790   38.1870   23.3810 C   0  0  0  0  0  0  0  0  0  0  0  0
   36.5540   41.9640   21.8760 O   0  0  0  0  0  0  0  0  0  0  0  0
   37.5740   39.7690   21.7770 C   0  0  0  0  0  0  0  0  0  0  0  0
   37.1580   41.1570   22.4140 C   0  0  0  0  0  0  0  0  0  0  0  0
   38.1200   40.6660   26.0340 O   0  0  0  0  0  0  0  0  0  0  0  0
   41.8270   41.2310   25.3050 C   0  0  0  0  0  0  0  0  0  0  0  0
   42.2070   40.7940   24.0990 N   0  0  0  0  0  0  0  0  0  0  0  0
   37.5330   38.6660   22.5270 C   0  0  0  0  0  0  0  0  0  0  0  0
   40.5420   40.9260   25.4150 N   0  0  0  0  0  0  0  0  0  0  0  0
   37.8500   41.0130   24.9170 C   0  0  0  0  0  0  0  0  0  0  0  0
  2 11  1  0
  2  4  1  0
  3 14  2  0
  4  1  1  0
  4 13  2  0
  5  1  1  0
  6  8  2  0
  7  8  1  0
  7 12  1  0
  8  3  1  0
 10 13  1  0
 11 10  1  0
 12  5  1  0
 14  9  2  0
M  END
$$$$

     RDKit          3D

 13 13  0  0  0  0  0  0  0  0999 V2000
   37.1420   39.7730   22.4600 C   0  0  0  0  0  0  0  0  0  0  0  0
   36.3040   35.4010   25.4640 N   0  0  0  0  0  0  0  0  0  0  0  0
   37.1590   40.4690   23.6330 C   0  0  0  0  0  0  0  0  0  0  0  0
   38.6820   35.6950   27.0940 C   0  0  0  0  0  0  0  0  0  0  0  0
   38.8680   41.0280   25.7810 C   0  0  0  0  0  0  0  0  0  0  0  0
   38.5760   38.6420   26.5210 C   0  0  0  0  0  0  0  0  0  0  0  0
   39.2360   39.6600   25.7440 C   0  0  0  0  0  0  0  0  0  0  0  0
   38.3000   40.0840   24.7800 C   0  0  0  0  0  0  0  0  0  0  0  0
   36.1050   38.5860   22.5500 C   0  0  0  0  0  0  0  0  0  0  0  0
   36.1530   38.2430   24.0160 C   0  0  0  0  0  0  0  0  0  0  0  0
   37.4870   37.7300   25.9970 C   0  0  0  0  0  0  0  0  0  0  0  0
   37.1290   36.2860   26.5090 C   0  0  0  0  0  0  0  0  0  0  0  0
   36.3540   37.4800   21.4950 C   0  0  0  0  0  0  0  0  0  0  0  0
  1  9  1  0
  1  3  1  0
  2 12  1  0
  7  5  1  0
  7  6  1  0
  8  3  1  0
  8  7  1  0
  8  5  1  0
  9 10  1  0
 11 12  1  0
 11  6  1  0
 12  4  1  0
 13  9  1  0
M  END
$$$$

     RDKit          3D

  6  6  0  0  0  0  0  0  0  0999 V2000
   39.0840   39.0810   25.1840 N   0  0  0  0  0  0  0  0  0  0  0  0
   37.6880   40.5570   23.8860 C   0  0  0  0  0  0  0  0  0  0  0  0
   38.8880   38.8400   22.6220 C   0  0  0  0  0  0  0  0  0  0  0  0
   38.6320   40.3900   24.9740 N   0  0  0  0  0  0  0  0  0  0  0  0
   38.2640   40.1990   22.5570 C   0  0  0  0  0  0  0  0  0  0  0  0
   39.6090   38.5410   23.9110 C   0  0  0  0  0  0  0  0  0  0  0  0
  2  4  1  0
  3  6  1  0
  4  1  1  0
  5  3  1  0
  5  2  1  0
  6  1  1  0
M  END
$$$$

     RDKit          3D

  8  7  0  0  0  0  0  0  0  0999 V2000
   40.4830   41.8240   23.8490 O   0  0  0  0  0  0  0  0  0  0  0  0
   41.1260   40.8870   24.3690 C   0  0  0  0  0  0  0  0  0  0  0  0
   38.0560   39.9510   22.6390 O   0  0  0  0  0  0  0  0  0  0  0  0
   41.2430   39.5120   24.0140 C   0  0  0  0  0  0  0  0  0  0  0  0
   38.4130   39.3840   24.7600 O   0  0  0  0  0  0  0  0  0  0  0  0
   38.7920   39.4900   23.5490 C   0  0  0  0  0  0  0  0  0  0  0  0
   41.7980   41.2020   25.4750 O   0  0  0  0  0  0  0  0  0  0  0  0
   40.0570   39.1150   23.1270 N   0  0  0  0  0  0  0  0  0  0  0  0
  1  2  2  0
  2  7  1  0
  3  6  2  0
  4  2  1  0
  6  5  1  0
  8  6  1  0
  8  4  1  0
M  END
$$$$

     RDKit          3D

  9  8  0  0  0  0  0  0  0  0999 V2000
   39.1410   39.3890   23.4350 C   0  0  0  0  0  0  0  0  0  0  0  0
   40.6990   39.9220   23.4130 C   0  0  0  0  0  0  0  0  0  0  0  0
   38.2700   40.6320   23.7990 C   0  0  0  0  0  0  0  0  0  0  0  0
   38.7390   40.9790   26.3430 C   0  0  0  0  0  0  0  0  0  0  0  0
   41.4340   40.1410   24.7500 C   0  0  0  0  0  0  0  0  0  0  0  0
   37.8740   37.9900   21.6960 O   0  0  0  0  0  0  0  0  0  0  0  0
   41.7900   40.7440   25.5100 O   0  0  0  0  0  0  0  0  0  0  0  0
   38.5550   41.2630   25.0470 C   0  0  0  0  0  0  0  0  0  0  0  0
   38.9290   38.8520   21.9900 C   0  0  0  0  0  0  0  0  0  0  0  0
  1  9  1  0
  1  3  1  0
  2  1  1  0
  2  5  1  0
  3  8  1  0
  5  7  2  0
  6  9  1  0
  8  4  2  0
M  END
$$$$
