
     RDKit          3D

  9  9  0  0  0  0  0  0  0  0999 V2000
   39.7860   41.0970   29.4830 C   0  0  0  0  0  0  0  0  0  0  0  0
   41.6980   40.6220   30.8980 C   0  0  0  0  0  0  0  0  0  0  0  0
   43.5080   40.2230   32.3340 O   0  0  0  0  0  0  0  0  0  0  0  0
   39.7150   41.0970   32.1660 C   0  0  0  0  0  0  0  0  0  0  0  0
   41.1240   41.2480   33.2820 S   0  0  0  0  0  0  0  0  0  0  0  0
   42.7340   40.8680   29.7320 C   0  0  0  0  0  0  0  0  0  0  0  0
   42.3250   40.6540   32.1330 C   0  0  0  0  0  0  0  0  0  0  0  0
   40.4050   41.4690   30.8220 C   0  0  0  0  0  0  0  0  0  0  0  0
   38.6830   41.5170   32.6740 O   0  0  0  0  0  0  0  0  0  0  0  0
  2  6  1  0
  2  7  1  0
  4  9  1  0
  4  5  1  0
  7  3  2  0
  7  5  1  0
  8  1  1  0
  8  2  1  0
  8  4  1  0
M  END
$$$$

     RDKit          3D

  8  7  0  0  0  0  0  0  0  0999 V2000
   43.6350   41.5600   32.3310 O   0  0  0  0  0  0  0  0  0  0  0  0
   39.9730   42.6960   33.0040 O   0  0  0  0  0  0  0  0  0  0  0  0
   39.3410   41.4100   33.0640 C   0  0  0  0  0  0  0  0  0  0  0  0
   42.2750   39.9130   31.2090 C   0  0  0  0  0  0  0  0  0  0  0  0
   39.9330   40.4480   32.0670 C   0  0  0  0  0  0  0  0  0  0  0  0
   43.1060   41.2010   31.1630 C   0  0  0  0  0  0  0  0  0  0  0  0
   41.3080   39.9910   32.3110 N   0  0  0  0  0  0  0  0  0  0  0  0
   42.8940   41.9390   30.1420 O   0  0  0  0  0  0  0  0  0  0  0  0
  2  3  1  0
  4  7  1  0
  5  7  1  0
  5  3  1  0
  6  4  1  0
  6  1  1  0
  8  6  2  0
M  END
$$$$

     RDKit          3D

 10 10  0  0  0  0  0  0  0  0999 V2000
   39.8880   41.2100   32.3960 C   0  0  0  0  0  0  0  0  0  0  0  0
   38.8800   43.1410   30.8210 S   0  0  0  0  0  0  0  0  0  0  0  0
   41.6920   39.7660   31.8120 C   0  0  0  0  0  0  0  0  0  0  0  0
   40.9320   41.8430   28.8900 C   0  0  0  0  0  0  0  0  0  0  0  0
   42.2720   44.4220   30.1400 S   0  0  0  0  0  0  0  0  0  0  0  0
   40.7670   40.2000   32.7400 C   0  0  0  0  0  0  0  0  0  0  0  0
   42.1710   42.7890   29.2290 C   0  0  0  0  0  0  0  0  0  0  0  0
   40.7830   41.3110   30.2290 N   0  0  0  0  0  0  0  0  0  0  0  0
   41.6090   40.3080   30.5420 C   0  0  0  0  0  0  0  0  0  0  0  0
   39.9290   41.7760   31.1430 C   0  0  0  0  0  0  0  0  0  0  0  0
  1  6  2  0
  2 10  2  0
  3  6  1  0
  4  7  1  0
  4  8  1  0
  7  5  1  0
  8  9  1  0
  8 10  1  0
  9  3  2  0
 10  1  1  0
M  END
$$$$

     RDKit          3D

  9  9  0  0  0  0  0  0  0  0999 V2000
   41.8880   41.2830   29.3110 C   0  0  0  0  0  0  0  0  0  0  0  0
   43.9830   43.5240   29.1040 O   0  0  0  0  0  0  0  0  0  0  0  0
   41.4860   40.0020   29.8600 O   0  0  0  0  0  0  0  0  0  0  0  0
   41.8830   39.8360   31.2660 C   0  0  0  0  0  0  0  0  0  0  0  0
   44.6810   42.7240   31.3240 O   0  0  0  0  0  0  0  0  0  0  0  0
   41.4500   41.8780   32.1790 O   0  0  0  0  0  0  0  0  0  0  0  0
   43.6980   42.8370   29.9710 C   0  0  0  0  0  0  0  0  0  0  0  0
   42.5120   41.1600   31.5800 C   0  0  0  0  0  0  0  0  0  0  0  0
   43.0740   41.5580   30.2470 C   0  0  0  0  0  0  0  0  0  0  0  0
  1  3  1  0
  1  9  1  0
  2  7  2  0
  3  4  1  0
  4  8  1  0
  7  5  1  0
  8  6  1  0
  9  7  1  0
  9  8  1  0
M  END
$$$$

     RDKit          3D

 23 23  0  0  0  0  0  0  0  0999 V2000
   37.6800   40.6890   27.1640 N   0  0  0  0  0  0  0  0  0  0  0  0
   35.3390   42.3340   29.7030 C   0  0  0  0  0  0  0  0  0  0  0  0
   38.7170   39.4230   29.8010 O   0  0  0  0  0  0  0  0  0  0  0  0
   40.0950   41.8590   31.1430 O   0  0  0  0  0  0  0  0  0  0  0  0
   44.7530   39.8670   31.3900 S   0  0  0  0  0  0  0  0  0  0  0  0
   40.2460   38.9640   32.7370 C   0  0  0  0  0  0  0  0  0  0  0  0
   34.5390   43.0460   28.6590 O   0  0  0  0  0  0  0  0  0  0  0  0
   41.9220   42.6970   28.8590 C   0  0  0  0  0  0  0  0  0  0  0  0
   36.5550   41.3260   29.2810 C   0  0  0  0  0  0  0  0  0  0  0  0
   40.7250   41.8710   32.2060 O   0  0  0  0  0  0  0  0  0  0  0  0
   44.2130   40.5790   34.1290 C   0  0  0  0  0  0  0  0  0  0  0  0
   37.7690   42.8800   31.1420 O   0  0  0  0  0  0  0  0  0  0  0  0
   41.9070   41.6050   27.7580 C   0  0  0  0  0  0  0  0  0  0  0  0
   37.1890   41.7680   27.9790 C   0  0  0  0  0  0  0  0  0  0  0  0
   41.5830   39.7240   32.3170 C   0  0  0  0  0  0  0  0  0  0  0  0
   38.7110   40.7250   29.9270 C   0  0  0  0  0  0  0  0  0  0  0  0
   44.7770   41.2120   35.4170 N   0  0  0  0  0  0  0  0  0  0  0  0
   41.0660   41.1070   28.6490 C   0  0  0  0  0  0  0  0  0  0  0  0
   37.5470   41.5700   30.5040 C   0  0  0  0  0  0  0  0  0  0  0  0
   43.2190   41.3720   33.3100 C   0  0  0  0  0  0  0  0  0  0  0  0
   40.0470   41.1940   29.8370 C   0  0  0  0  0  0  0  0  0  0  0  0
   41.7010   41.1350   33.0290 C   0  0  0  0  0  0  0  0  0  0  0  0
   43.0350   39.3030   31.8300 C   0  0  0  0  0  0  0  0  0  0  0  0
  1 14  1  0
  4 10  1  0
  5 23  1  0
  7  2  1  0
  9 14  1  0
  9  2  1  0
  9 19  1  0
 10 22  1  0
 11 17  1  0
 13 18  1  0
 13  8  1  0
 15  6  1  0
 15 22  1  0
 16  3  1  0
 16 19  1  0
 18  8  1  0
 18 21  1  0
 19 12  1  0
 20 11  1  0
 21 16  1  0
 21  4  1  0
 22 20  1  0
 23 15  1  0
M  END
$$$$

     RDKit          3D

 21 22  0  0  0  0  0  0  0  0999 V2000
   39.3130   42.8890   33.0260 C   0  0  0  0  0  0  0  0  0  0  0  0
   38.3240   39.5470   27.8640 O   0  0  0  0  0  0  0  0  0  0  0  0
   42.0410   38.4020   32.0790 C   0  0  0  0  0  0  0  0  0  0  0  0
   38.7780   40.6380   29.9490 C   0  0  0  0  0  0  0  0  0  0  0  0
   40.7840   39.0980   31.7610 C   0  0  0  0  0  0  0  0  0  0  0  0
   37.6050   41.3670   26.8350 C   0  0  0  0  0  0  0  0  0  0  0  0
   38.5050   41.4350   25.8100 C   0  0  0  0  0  0  0  0  0  0  0  0
   43.2010   39.1380   32.2890 C   0  0  0  0  0  0  0  0  0  0  0  0
   40.7730   40.4550   31.5570 C   0  0  0  0  0  0  0  0  0  0  0  0
   35.2840   41.5600   28.3590 Br  0  0  0  0  0  0  0  0  0  0  0  0
   39.6840   42.5900   31.6050 C   0  0  0  0  0  0  0  0  0  0  0  0
   36.2910   41.4120   26.7170 C   0  0  0  0  0  0  0  0  0  0  0  0
   42.0260   41.2680   31.6940 C   0  0  0  0  0  0  0  0  0  0  0  0
   43.2710   40.5330   31.9250 C   0  0  0  0  0  0  0  0  0  0  0  0
   38.2930   41.1490   28.3370 S   0  0  0  0  0  0  0  0  0  0  0  0
   36.5760   41.0660   24.3770 C   0  0  0  0  0  0  0  0  0  0  0  0
   39.4700   41.0980   31.2090 C   0  0  0  0  0  0  0  0  0  0  0  0
   37.9530   41.2670   24.5390 C   0  0  0  0  0  0  0  0  0  0  0  0
   35.7530   41.1440   25.4540 C   0  0  0  0  0  0  0  0  0  0  0  0
   38.5700   42.4590   28.7210 O   0  0  0  0  0  0  0  0  0  0  0  0
   40.3120   43.2950   30.7940 O   0  0  0  0  0  0  0  0  0  0  0  0
  2 15  2  0
  3  8  1  0
  5  3  2  0
  6 15  1  0
  7  6  2  0
  9 13  2  0
  9  5  1  0
 11  1  1  0
 12  6  1  0
 12 10  1  0
 13 14  1  0
 14  8  2  0
 15 20  2  0
 15  4  1  0
 16 18  2  0
 16 19  1  0
 17  4  1  0
 17  9  1  0
 17 11  1  0
 18  7  1  0
 19 12  2  0
 21 11  2  0
M  END
$$$$

     RDKit          3D

 10 10  0  0  0  0  0  0  0  0999 V2000
   42.8920   40.3830   31.0890 C   0  0  0  0  0  0  0  0  0  0  0  0
   42.8960   41.4630   32.1110 C   0  0  0  0  0  0  0  0  0  0  0  0
   40.4650   41.1690   33.8180 O   0  0  0  0  0  0  0  0  0  0  0  0
   39.5280   43.0660   33.1450 O   0  0  0  0  0  0  0  0  0  0  0  0
   43.8440   41.1250   33.0800 O   0  0  0  0  0  0  0  0  0  0  0  0
   41.4760   41.6400   32.9670 C   0  0  0  0  0  0  0  0  0  0  0  0
   40.6860   40.5120   31.1900 C   0  0  0  0  0  0  0  0  0  0  0  0
   41.6350   40.6830   30.3450 O   0  0  0  0  0  0  0  0  0  0  0  0
   39.5930   41.2630   31.3480 O   0  0  0  0  0  0  0  0  0  0  0  0
   40.3330   42.3260   32.1750 C   0  0  0  0  0  0  0  0  0  0  0  0
  1  2  1  0
  2  6  1  0
  2  5  1  0
  6  3  1  0
  7  9  1  0
  8  1  1  0
  8  7  1  0
  9 10  1  0
 10  6  1  0
 10  4  1  0
M  END
$$$$

     RDKit          3D

  8  8  0  0  0  0  0  0  0  0999 V2000
   40.7430   41.5430   31.1210 C   0  0  0  0  0  0  0  0  0  0  0  0
   39.4870   41.4120   33.2210 N   0  0  0  0  0  0  0  0  0  0  0  0
   42.3910   41.1700   29.4590 C   0  0  0  0  0  0  0  0  0  0  0  0
   42.7060   40.3240   31.6800 C   0  0  0  0  0  0  0  0  0  0  0  0
   41.4410   40.7830   32.0220 C   0  0  0  0  0  0  0  0  0  0  0  0
   43.1760   40.5220   30.3960 C   0  0  0  0  0  0  0  0  0  0  0  0
   41.1890   41.7220   29.8330 C   0  0  0  0  0  0  0  0  0  0  0  0
   40.7100   40.5970   33.3260 C   0  0  0  0  0  0  0  0  0  0  0  0
  1  5  1  0
  2  8  1  0
  3  7  1  0
  3  6  2  0
  4  5  2  0
  5  8  1  0
  6  4  1  0
  7  1  2  0
M  END
$$$$

     RDKit          3D

  9  8  0  0  0  0  0  0  0  0999 V2000
   42.0420   38.2380   31.1780 O   0  0  0  0  0  0  0  0  0  0  0  0
   40.4050   39.1040   33.0450 O   0  0  0  0  0  0  0  0  0  0  0  0
   37.5470   37.6050   33.1750 C   0  0  0  0  0  0  0  0  0  0  0  0
   41.4260   39.2930   31.9770 C   0  0  0  0  0  0  0  0  0  0  0  0
   39.4110   38.6730   32.1080 C   0  0  0  0  0  0  0  0  0  0  0  0
   39.6030   39.4850   29.4930 C   0  0  0  0  0  0  0  0  0  0  0  0
   37.8900   40.1870   30.8250 O   0  0  0  0  0  0  0  0  0  0  0  0
   38.8670   37.3890   32.5680 C   0  0  0  0  0  0  0  0  0  0  0  0
   39.0480   39.5350   30.9490 C   0  0  0  0  0  0  0  0  0  0  0  0
  1  4  1  0
  4  2  1  0
  5  8  1  0
  5  2  1  0
  7  9  1  0
  8  3  1  0
  9  6  1  0
  9  5  1  0
M  END
$$$$

     RDKit          3D

  6  5  0  0  0  0  0  0  0  0999 V2000
   41.3860   43.9900   32.7240 C   0  0  0  0  0  0  0  0  0  0  0  0
   42.1180   43.4670   31.3820 C   0  0  0  0  0  0  0  0  0  0  0  0
   40.7560   43.1330   34.7480 O   0  0  0  0  0  0  0  0  0  0  0  0
   40.6720   42.7490   33.3030 C   0  0  0  0  0  0  0  0  0  0  0  0
   41.8000   41.9960   33.8350 O   0  0  0  0  0  0  0  0  0  0  0  0
   40.5160   44.9500   32.3660 C   0  0  0  0  0  0  0  0  0  0  0  0
  1  4  1  0
  2  1  1  0
  4  5  1  0
  4  3  1  0
  6  1  1  0
M  END
$$$$

     RDKit          3D

  6  6  0  0  0  0  0  0  0  0999 V2000
   40.8880   41.1150   31.9840 N   0  0  0  0  0  0  0  0  0  0  0  0
   42.5470   39.3920   32.2360 C   0  0  0  0  0  0  0  0  0  0  0  0
   41.0880   40.6110   33.5500 N   0  0  0  0  0  0  0  0  0  0  0  0
   41.9160   40.4160   31.3840 C   0  0  0  0  0  0  0  0  0  0  0  0
   42.3970   40.6290   29.9660 C   0  0  0  0  0  0  0  0  0  0  0  0
   41.9900   39.6300   33.5520 C   0  0  0  0  0  0  0  0  0  0  0  0
  1  3  1  0
  2  6  2  0
  3  6  1  0
  4  1  2  0
  4  2  1  0
  5  4  1  0
M  END
$$$$

     RDKit          3D

 26 27  0  0  0  0  0  0  0  0999 V2000
   39.1320   40.0570   30.1410 N   0  0  0  0  0  0  0  0  0  0  0  0
   33.5190   34.3910   32.7050 C   0  0  0  0  0  0  0  0  0  0  0  0
   35.2650   33.8890   31.0200 C   0  0  0  0  0  0  0  0  0  0  0  0
   38.3440   41.1290   29.7330 C   0  0  0  0  0  0  0  0  0  0  0  0
   40.6110   38.1440   31.8140 C   0  0  0  0  0  0  0  0  0  0  0  0
   36.5810   43.0450   29.7060 C   0  0  0  0  0  0  0  0  0  0  0  0
   37.1900   35.7080   31.6220 S   0  0  0  0  0  0  0  0  0  0  0  0
   42.1500   39.8830   30.9120 C   0  0  0  0  0  0  0  0  0  0  0  0
   41.8320   38.9070   31.9290 N   0  0  0  0  0  0  0  0  0  0  0  0
   38.4390   41.9120   30.8550 C   0  0  0  0  0  0  0  0  0  0  0  0
   39.5440   38.7880   30.8560 C   0  0  0  0  0  0  0  0  0  0  0  0
   38.9920   36.8110   33.2050 C   0  0  0  0  0  0  0  0  0  0  0  0
   32.7270   35.2890   32.7680 O   0  0  0  0  0  0  0  0  0  0  0  0
   43.4450   40.2510   31.6380 C   0  0  0  0  0  0  0  0  0  0  0  0
   33.7930   33.9100   31.2500 C   0  0  0  0  0  0  0  0  0  0  0  0
   33.7310   34.5560   34.2990 C   0  0  0  0  0  0  0  0  0  0  0  0
   37.5300   40.3650   28.6240 C   0  0  0  0  0  0  0  0  0  0  0  0
   38.2040   36.9540   31.7660 C   0  0  0  0  0  0  0  0  0  0  0  0
   40.0050   37.9360   33.2830 C   0  0  0  0  0  0  0  0  0  0  0  0
   38.4410   37.7250   30.6980 C   0  0  0  0  0  0  0  0  0  0  0  0
   35.5450   35.2270   31.6560 C   0  0  0  0  0  0  0  0  0  0  0  0
   38.0840   34.4720   31.7880 O   0  0  0  0  0  0  0  0  0  0  0  0
   32.7640   36.5790   33.4620 C   0  0  0  0  0  0  0  0  0  0  0  0
   35.8920   42.4190   28.5190 C   0  0  0  0  0  0  0  0  0  0  0  0
   37.1450   42.8950   28.3300 C   0  0  0  0  0  0  0  0  0  0  0  0
   37.4420   41.3650   27.5010 C   0  0  0  0  0  0  0  0  0  0  0  0
  2 13  1  0
  2 16  1  0
  3 15  1  0
  3 21  1  0
  4  1  1  0
  4 10  2  0
  5  9  1  0
  5 19  1  0
  7 21  1  0
  7 18  1  0
  7 22  2  0
  8 14  1  0
  8  9  1  0
 11  1  1  0
 11  5  1  0
 12 19  1  0
 13 23  1  0
 15  2  1  0
 17  4  1  0
 18 12  1  0
 20 11  1  0
 20 18  2  0
 24  6  1  0
 25 24  1  0
 25  6  1  0
 26 25  1  0
 26 17  1  0
M  END
$$$$

     RDKit          3D

 23 24  0  0  0  0  0  0  0  0999 V2000
   38.6830   41.8970   30.9600 C   0  0  0  0  0  0  0  0  0  0  0  0
   42.5610   41.5220   35.2780 C   0  0  0  0  0  0  0  0  0  0  0  0
   39.6930   41.9110   32.9270 C   0  0  0  0  0  0  0  0  0  0  0  0
   37.5620   42.1600   30.2230 C   0  0  0  0  0  0  0  0  0  0  0  0
   40.6090   40.2900   31.2800 N   0  0  0  0  0  0  0  0  0  0  0  0
   37.8340   39.8290   27.3960 O   0  0  0  0  0  0  0  0  0  0  0  0
   45.0740   42.0610   35.8200 O   0  0  0  0  0  0  0  0  0  0  0  0
   43.5620   40.2090   33.3800 O   0  0  0  0  0  0  0  0  0  0  0  0
   38.0970   40.4910   28.5700 C   0  0  0  0  0  0  0  0  0  0  0  0
   41.4820   39.2720   30.8670 C   0  0  0  0  0  0  0  0  0  0  0  0
   39.5580   40.7520   30.4740 C   0  0  0  0  0  0  0  0  0  0  0  0
   42.4300   39.4610   32.9220 C   0  0  0  0  0  0  0  0  0  0  0  0
   43.6550   42.4320   35.7800 C   0  0  0  0  0  0  0  0  0  0  0  0
   43.6720   41.6410   33.0170 C   0  0  0  0  0  0  0  0  0  0  0  0
   37.2150   41.4510   29.0690 C   0  0  0  0  0  0  0  0  0  0  0  0
   41.2830   40.1720   33.5350 C   0  0  0  0  0  0  0  0  0  0  0  0
   35.4780   41.7680   28.2360 Br  0  0  0  0  0  0  0  0  0  0  0  0
   41.6260   40.8290   34.5840 O   0  0  0  0  0  0  0  0  0  0  0  0
   44.7950   43.8270   34.0460 O   0  0  0  0  0  0  0  0  0  0  0  0
   39.0540   42.6930   32.0010 O   0  0  0  0  0  0  0  0  0  0  0  0
   44.4580   42.9120   33.5260 C   0  0  0  0  0  0  0  0  0  0  0  0
   40.4580   40.8840   32.5600 C   0  0  0  0  0  0  0  0  0  0  0  0
   39.2630   40.1580   29.2520 C   0  0  0  0  0  0  0  0  0  0  0  0
  1 20  1  0
  2 13  1  0
  4  1  2  0
  5 22  1  0
  6  9  1  0
  9 15  2  0
  9 23  1  0
 10  5  1  0
 11  1  1  0
 11  5  1  0
 12  8  1  0
 13  7  1  0
 14  8  1  0
 14 21  2  0
 15  4  1  0
 16 12  1  0
 16 18  1  0
 17 15  1  0
 18  2  1  0
 20  3  1  0
 21 19  2  0
 22  3  2  0
 22 16  1  0
 23 11  2  0
M  END
$$$$

     RDKit          3D

 10 10  0  0  0  0  0  0  0  0999 V2000
   43.0530   42.5070   32.7980 O   0  0  0  0  0  0  0  0  0  0  0  0
   39.5080   42.5450   31.9190 C   0  0  0  0  0  0  0  0  0  0  0  0
   43.5640   41.9500   29.3760 Br  0  0  0  0  0  0  0  0  0  0  0  0
   42.0550   42.3350   32.1550 C   0  0  0  0  0  0  0  0  0  0  0  0
   40.6680   42.6200   34.0420 O   0  0  0  0  0  0  0  0  0  0  0  0
   42.0760   41.7570   30.4460 P   0  0  0  0  0  0  0  0  0  0  0  0
   40.7270   42.4670   32.5710 C   0  0  0  0  0  0  0  0  0  0  0  0
   41.4070   40.3010   30.3860 O   0  0  0  0  0  0  0  0  0  0  0  0
   40.8590   42.8730   29.9430 O   0  0  0  0  0  0  0  0  0  0  0  0
   39.7930   42.2630   30.9730 C   0  0  0  0  0  0  0  0  0  0  0  0
  2  7  1  0
  4  7  1  0
  4  1  2  0
  6  3  1  0
  6  4  1  0
  7  5  1  0
  8  6  2  0
  9  6  1  0
  9 10  1  0
 10  2  1  0
M  END
$$$$

     RDKit          3D

  7  6  0  0  0  0  0  0  0  0999 V2000
   39.8200   41.2460   32.6190 C   0  0  0  0  0  0  0  0  0  0  0  0
   39.6550   42.5850   33.7130 S   0  0  0  0  0  0  0  0  0  0  0  0
   41.6240   42.6020   31.9180 O   0  0  0  0  0  0  0  0  0  0  0  0
   41.9130   39.2810   31.5580 O   0  0  0  0  0  0  0  0  0  0  0  0
   39.5630   39.8680   32.4200 O   0  0  0  0  0  0  0  0  0  0  0  0
   41.5460   40.4450   31.0330 C   0  0  0  0  0  0  0  0  0  0  0  0
   41.1020   41.5200   31.7990 C   0  0  0  0  0  0  0  0  0  0  0  0
  1  2  1  0
  5  1  2  0
  6  4  1  0
  6  7  1  0
  7  3  2  0
  7  1  1  0
M  END
$$$$

     RDKit          3D

  7  6  0  0  0  0  0  0  0  0999 V2000
   40.6590   38.7040   31.5660 N   0  0  0  0  0  0  0  0  0  0  0  0
   40.2000   40.1690   31.7700 C   0  0  0  0  0  0  0  0  0  0  0  0
   42.0950   41.6000   31.7430 O   0  0  0  0  0  0  0  0  0  0  0  0
   41.4340   40.9990   29.5210 C   0  0  0  0  0  0  0  0  0  0  0  0
   38.9060   41.1580   31.7020 C   0  0  0  0  0  0  0  0  0  0  0  0
   41.3100   40.9970   31.0430 C   0  0  0  0  0  0  0  0  0  0  0  0
   38.8120   42.0470   32.9230 N   0  0  0  0  0  0  0  0  0  0  0  0
  2  1  1  0
  4  6  1  0
  5  2  1  0
  5  7  1  0
  6  3  2  0
  6  2  1  0
M  END
$$$$

     RDKit          3D

 13 14  0  0  0  0  0  0  0  0999 V2000
   41.7290   44.5080   31.5370 O   0  0  0  0  0  0  0  0  0  0  0  0
   39.9680   42.0700   29.0180 C   0  0  0  0  0  0  0  0  0  0  0  0
   42.0110   40.9220   29.6890 N   0  0  0  0  0  0  0  0  0  0  0  0
   41.1070   42.0590   30.0460 C   0  0  0  0  0  0  0  0  0  0  0  0
   40.8830   42.2850   31.4860 N   0  0  0  0  0  0  0  0  0  0  0  0
   40.0620   41.5830   32.4250 C   0  0  0  0  0  0  0  0  0  0  0  0
   43.3070   40.9090   30.5550 C   0  0  0  0  0  0  0  0  0  0  0  0
   40.5760   41.5810   27.7980 N   0  0  0  0  0  0  0  0  0  0  0  0
   40.2340   43.6630   33.1530 N   0  0  0  0  0  0  0  0  0  0  0  0
   41.8450   41.0270   28.1750 C   0  0  0  0  0  0  0  0  0  0  0  0
   41.0480   43.6220   32.0700 C   0  0  0  0  0  0  0  0  0  0  0  0
   39.8150   40.3730   32.4320 O   0  0  0  0  0  0  0  0  0  0  0  0
   39.5660   42.4550   33.3660 N   0  0  0  0  0  0  0  0  0  0  0  0
  1 11  2  0
  3  4  1  0
  3  7  1  0
  4  2  1  0
  4  5  1  0
  5 11  1  0
  5  6  1  0
  6 12  2  0
  6 13  1  0
  8 10  1  0
  8  2  1  0
  9 13  2  0
 10  3  1  0
 11  9  1  0
M  END
$$$$

     RDKit          3D

 10  9  0  0  0  0  0  0  0  0999 V2000
   44.8710   42.0710   30.2070 S   0  0  0  0  0  0  0  0  0  0  0  0
   40.4520   40.4340   32.1980 C   0  0  0  0  0  0  0  0  0  0  0  0
   41.6230   41.6780   30.3210 C   0  0  0  0  0  0  0  0  0  0  0  0
   41.1450   39.1970   31.5060 C   0  0  0  0  0  0  0  0  0  0  0  0
   40.6540   41.5400   31.3090 C   0  0  0  0  0  0  0  0  0  0  0  0
   39.8700   42.4820   31.8990 C   0  0  0  0  0  0  0  0  0  0  0  0
   39.2370   43.3010   31.2240 O   0  0  0  0  0  0  0  0  0  0  0  0
   42.6120   39.1460   31.5590 N   0  0  0  0  0  0  0  0  0  0  0  0
   39.9180   42.6120   33.2120 O   0  0  0  0  0  0  0  0  0  0  0  0
   43.0680   42.2120   30.8610 C   0  0  0  0  0  0  0  0  0  0  0  0
  1 10  1  0
  3 10  1  0
  4  8  1  0
  4  2  1  0
  5  3  1  0
  5  6  1  0
  5  2  1  0
  6  9  1  0
  7  6  2  0
M  END
$$$$

     RDKit          3D

 18 17  0  0  0  0  0  0  0  0999 V2000
   44.7180   40.5250   38.0060 O   0  0  0  0  0  0  0  0  0  0  0  0
   43.3700   40.5480   37.3980 P   0  0  0  0  0  0  0  0  0  0  0  0
   39.5640   42.1320   29.5280 N   0  0  0  0  0  0  0  0  0  0  0  0
   41.7620   41.2950   32.8950 C   0  0  0  0  0  0  0  0  0  0  0  0
   38.2230   41.7020   29.4300 C   0  0  0  0  0  0  0  0  0  0  0  0
   38.3030   40.4450   29.8210 O   0  0  0  0  0  0  0  0  0  0  0  0
   41.9470   41.2170   31.5940 N   0  0  0  0  0  0  0  0  0  0  0  0
   41.5190   39.0710   32.8490 O   0  0  0  0  0  0  0  0  0  0  0  0
   41.5280   42.3260   33.4880 O   0  0  0  0  0  0  0  0  0  0  0  0
   42.3120   40.0570   33.5320 C   0  0  0  0  0  0  0  0  0  0  0  0
   42.7650   39.3600   37.8890 O   0  0  0  0  0  0  0  0  0  0  0  0
   42.1450   40.0940   35.1350 C   0  0  0  0  0  0  0  0  0  0  0  0
   39.5940   40.0600   30.0520 N   0  0  0  0  0  0  0  0  0  0  0  0
   40.2710   40.9870   29.8520 C   0  0  0  0  0  0  0  0  0  0  0  0
   42.7150   41.9860   37.3990 O   0  0  0  0  0  0  0  0  0  0  0  0
   43.3920   40.1330   35.8130 O   0  0  0  0  0  0  0  0  0  0  0  0
   41.7220   40.8690   30.2000 C   0  0  0  0  0  0  0  0  0  0  0  0
   37.9230   40.5410   28.9060 C   0  0  0  0  0  0  0  0  0  0  0  0
  2 15  2  0
  2 11  1  0
  2  1  1  0
  3 14  2  0
  4  9  2  0
  4 10  1  0
  6 13  1  0
  7  4  1  0
 10  8  1  0
 10 12  1  0
 12 16  1  0
 14 13  1  0
 14 17  1  0
 16  2  1  0
 17  7  1  0
 18  5  1  0
 18  6  1  0
M  END
$$$$

     RDKit          3D

  7  6  0  0  0  0  0  0  0  0999 V2000
   41.9130   40.7400   31.4740 C   0  0  0  0  0  0  0  0  0  0  0  0
   39.0030   43.9710   29.1760 O   0  0  0  0  0  0  0  0  0  0  0  0
   41.0260   40.7980   30.1940 C   0  0  0  0  0  0  0  0  0  0  0  0
   40.8600   42.2650   29.6850 C   0  0  0  0  0  0  0  0  0  0  0  0
   42.7240   39.7050   31.6680 O   0  0  0  0  0  0  0  0  0  0  0  0
   39.3760   42.8120   29.7700 C   0  0  0  0  0  0  0  0  0  0  0  0
   38.5510   42.1430   30.4790 O   0  0  0  0  0  0  0  0  0  0  0  0
  1  5  1  0
  2  6  2  0
  3  1  1  0
  4  6  1  0
  4  3  1  0
  6  7  1  0
M  END
$$$$
