
     RDKit          3D

 12 11  0  0  0  0  0  0  0  0999 V2000
   34.0640   40.1190   26.0400 O   0  0  0  0  0  0  0  0  0  0  0  0
   33.1400   36.0690   27.8090 O   0  0  0  0  0  0  0  0  0  0  0  0
   32.1330   37.9540   25.0010 C   0  0  0  0  0  0  0  0  0  0  0  0
   33.2550   36.7030   26.7550 C   0  0  0  0  0  0  0  0  0  0  0  0
   38.1450   37.5070   28.4140 O   0  0  0  0  0  0  0  0  0  0  0  0
   34.9730   38.0170   25.7620 C   0  0  0  0  0  0  0  0  0  0  0  0
   33.3830   38.9780   26.5150 C   0  0  0  0  0  0  0  0  0  0  0  0
   35.9860   37.6070   26.7310 C   0  0  0  0  0  0  0  0  0  0  0  0
   32.5270   36.7250   25.6200 C   0  0  0  0  0  0  0  0  0  0  0  0
   38.1620   38.7130   27.6270 C   0  0  0  0  0  0  0  0  0  0  0  0
   36.7280   38.9110   27.1170 C   0  0  0  0  0  0  0  0  0  0  0  0
   33.9780   37.8980   26.8200 C   0  0  0  0  0  0  0  0  0  0  0  0
  1  7  1  0
  3  9  1  0
  4 12  1  0
  4  2  2  0
  6  8  1  0
  7 12  1  0
  8 11  1  0
  9  4  1  0
 10  5  1  0
 11 10  1  0
 12  6  1  0
M  END
$$$$

     RDKit          3D

 14 14  0  0  0  0  0  0  0  0999 V2000
   39.7310   38.7730   29.2130 N   0  0  0  0  0  0  0  0  0  0  0  0
   34.5580   38.3390   22.4950 C   0  0  0  0  0  0  0  0  0  0  0  0
   39.2810   39.7360   26.6060 C   0  0  0  0  0  0  0  0  0  0  0  0
   40.4390   40.2580   27.2580 C   0  0  0  0  0  0  0  0  0  0  0  0
   37.2410   38.8920   24.9570 C   0  0  0  0  0  0  0  0  0  0  0  0
   39.4560   41.1620   29.3370 N   0  0  0  0  0  0  0  0  0  0  0  0
   34.9280   39.4490   24.3970 N   0  0  0  0  0  0  0  0  0  0  0  0
   38.5420   38.9480   24.5610 C   0  0  0  0  0  0  0  0  0  0  0  0
   37.0190   39.2040   26.2750 C   0  0  0  0  0  0  0  0  0  0  0  0
   35.6900   38.4050   23.9330 S   0  0  0  0  0  0  0  0  0  0  0  0
   39.5020   39.3770   25.3200 C   0  0  0  0  0  0  0  0  0  0  0  0
   38.0060   39.6480   27.1370 C   0  0  0  0  0  0  0  0  0  0  0  0
   36.3770   37.3330   23.5230 O   0  0  0  0  0  0  0  0  0  0  0  0
   39.9790   40.1090   28.7350 C   0  0  0  0  0  0  0  0  0  0  0  0
  3 12  1  0
  3  4  1  0
  4 14  1  0
  5  9  1  0
  8  5  2  0
  8 11  1  0
  9 12  2  0
 10  2  1  0
 10  7  1  0
 10  5  1  0
 11  3  2  0
 13 10  2  0
 14  1  2  0
 14  6  1  0
M  END
$$$$

     RDKit          3D

 19 21  0  0  0  0  0  0  0  0999 V2000
   34.5190   41.4510   24.7700 C   0  0  0  0  0  0  0  0  0  0  0  0
   34.2940   40.4580   23.6170 C   0  0  0  0  0  0  0  0  0  0  0  0
   35.2460   42.8140   24.5910 C   0  0  0  0  0  0  0  0  0  0  0  0
   39.6960   40.1890   24.6880 O   0  0  0  0  0  0  0  0  0  0  0  0
   34.0610   38.9260   23.9350 C   0  0  0  0  0  0  0  0  0  0  0  0
   38.7950   40.0650   25.5100 C   0  0  0  0  0  0  0  0  0  0  0  0
   38.1090   41.1940   26.1770 C   0  0  0  0  0  0  0  0  0  0  0  0
   36.4200   42.4370   24.8490 O   0  0  0  0  0  0  0  0  0  0  0  0
   39.3310   41.8280   26.9360 C   0  0  0  0  0  0  0  0  0  0  0  0
   36.8410   41.3030   26.8120 C   0  0  0  0  0  0  0  0  0  0  0  0
   37.2170   38.8830   27.9590 O   0  0  0  0  0  0  0  0  0  0  0  0
   39.1850   37.2100   29.2350 C   0  0  0  0  0  0  0  0  0  0  0  0
   39.4880   38.0520   27.9810 C   0  0  0  0  0  0  0  0  0  0  0  0
   36.6990   41.0420   25.3600 C   0  0  0  0  0  0  0  0  0  0  0  0
   39.7680   38.5850   29.2490 N   0  0  0  0  0  0  0  0  0  0  0  0
   33.2170   41.3830   23.8970 O   0  0  0  0  0  0  0  0  0  0  0  0
   33.3420   38.2420   22.7920 C   0  0  0  0  0  0  0  0  0  0  0  0
   38.3570   38.7990   25.9340 N   0  0  0  0  0  0  0  0  0  0  0  0
   38.2510   38.5910   27.3630 C   0  0  0  0  0  0  0  0  0  0  0  0
  1  3  1  0
  2 16  1  0
  2  5  1  0
  2  1  1  0
  3  8  1  0
  4  6  2  0
  6 18  1  0
  6  7  1  0
  7 10  1  0
  7  9  1  0
 12 15  1  0
 13 19  1  0
 13 12  1  0
 13 15  1  0
 14  8  1  0
 14  7  1  0
 14 10  1  0
 16  1  1  0
 17  5  1  0
 18 19  1  0
 19 11  2  0
M  END
$$$$

     RDKit          3D

  9  8  0  0  0  0  0  0  0  0999 V2000
   38.0460   40.0240   26.4380 C   0  0  0  0  0  0  0  0  0  0  0  0
   39.8130   38.8210   27.6760 C   0  0  0  0  0  0  0  0  0  0  0  0
   38.9060   40.8490   25.6430 O   0  0  0  0  0  0  0  0  0  0  0  0
   35.4900   41.7610   25.6750 O   0  0  0  0  0  0  0  0  0  0  0  0
   36.1350   40.9380   25.0370 C   0  0  0  0  0  0  0  0  0  0  0  0
   36.7140   39.8190   25.8010 C   0  0  0  0  0  0  0  0  0  0  0  0
   38.6040   38.6680   26.7320 C   0  0  0  0  0  0  0  0  0  0  0  0
   37.9870   37.7600   25.8400 O   0  0  0  0  0  0  0  0  0  0  0  0
   36.3220   41.0940   23.7850 O   0  0  0  0  0  0  0  0  0  0  0  0
  1  3  1  0
  1  7  1  0
  5  4  1  0
  5  6  1  0
  6  1  1  0
  7  2  1  0
  8  7  1  0
  9  5  2  0
M  END
$$$$

     RDKit          3D

 11 10  0  0  0  0  0  0  0  0999 V2000
   40.0760   38.5970   27.8080 N   0  0  0  0  0  0  0  0  0  0  0  0
   37.2660   37.9640   24.6460 O   0  0  0  0  0  0  0  0  0  0  0  0
   38.7920   39.5830   25.7310 C   0  0  0  0  0  0  0  0  0  0  0  0
   41.2830   41.0830   27.4890 O   0  0  0  0  0  0  0  0  0  0  0  0
   37.7270   38.4050   25.9320 C   0  0  0  0  0  0  0  0  0  0  0  0
   38.0420   40.6010   24.9980 O   0  0  0  0  0  0  0  0  0  0  0  0
   39.6830   42.6350   25.9600 O   0  0  0  0  0  0  0  0  0  0  0  0
   40.1200   39.2280   26.4000 C   0  0  0  0  0  0  0  0  0  0  0  0
   39.9940   41.5800   23.9280 O   0  0  0  0  0  0  0  0  0  0  0  0
   40.8970   40.5750   26.1790 C   0  0  0  0  0  0  0  0  0  0  0  0
   40.0940   41.6020   25.3320 C   0  0  0  0  0  0  0  0  0  0  0  0
  2  5  1  0
  3  6  1  0
  3  5  1  0
  3  8  1  0
  8  1  1  0
  9 11  2  0
 10  8  1  0
 10  4  1  0
 11  7  1  0
 11 10  1  0
M  END
$$$$

     RDKit          3D

  9  8  0  0  0  0  0  0  0  0999 V2000
   39.2100   41.5940   26.7500 O   0  0  0  0  0  0  0  0  0  0  0  0
   39.9950   40.5460   27.0380 C   0  0  0  0  0  0  0  0  0  0  0  0
   42.0880   40.0010   25.9420 C   0  0  0  0  0  0  0  0  0  0  0  0
   41.3590   41.4630   29.4000 C   0  0  0  0  0  0  0  0  0  0  0  0
   42.0430   40.5330   28.4690 N   0  0  0  0  0  0  0  0  0  0  0  0
   39.6140   39.3410   27.2360 O   0  0  0  0  0  0  0  0  0  0  0  0
   42.7900   38.9440   26.4100 O   0  0  0  0  0  0  0  0  0  0  0  0
   41.1540   39.4840   24.8330 C   0  0  0  0  0  0  0  0  0  0  0  0
   41.5050   40.8170   27.1080 C   0  0  0  0  0  0  0  0  0  0  0  0
  1  2  2  0
  2  6  1  0
  3  8  1  0
  3  7  1  0
  3  9  1  0
  5  4  1  0
  9  2  1  0
  9  5  1  0
M  END
$$$$

     RDKit          3D

 18 18  0  0  0  0  0  0  0  0999 V2000
   37.7700   41.1040   26.1080 C   0  0  0  0  0  0  0  0  0  0  0  0
   40.9240   40.7450   23.9360 C   0  0  0  0  0  0  0  0  0  0  0  0
   38.7860   40.5890   27.0850 C   0  0  0  0  0  0  0  0  0  0  0  0
   38.0050   39.3460   29.0770 O   0  0  0  0  0  0  0  0  0  0  0  0
   40.9100   39.9300   25.3480 C   0  0  0  0  0  0  0  0  0  0  0  0
   39.0800   37.9480   28.0410 N   0  0  0  0  0  0  0  0  0  0  0  0
   42.1500   39.1380   25.2970 C   0  0  0  0  0  0  0  0  0  0  0  0
   39.1040   42.5920   26.4650 N   0  0  0  0  0  0  0  0  0  0  0  0
   35.6010   41.2910   25.4430 C   0  0  0  0  0  0  0  0  0  0  0  0
   39.2450   41.6180   27.5260 C   0  0  0  0  0  0  0  0  0  0  0  0
   37.8880   42.2930   25.5910 N   0  0  0  0  0  0  0  0  0  0  0  0
   37.4010   43.0570   24.9570 O   0  0  0  0  0  0  0  0  0  0  0  0
   38.8700   38.8530   27.8310 C   0  0  0  0  0  0  0  0  0  0  0  0
   39.1090   36.7190   29.3440 C   0  0  0  0  0  0  0  0  0  0  0  0
   38.9120   39.5530   26.5970 C   0  0  0  0  0  0  0  0  0  0  0  0
   39.8040   39.2860   25.4780 O   0  0  0  0  0  0  0  0  0  0  0  0
   39.8070   42.4520   28.5240 N   0  0  0  0  0  0  0  0  0  0  0  0
   36.6220   40.9340   26.5300 O   0  0  0  0  0  0  0  0  0  0  0  0
  1 18  1  0
  1  3  1  0
  2  5  1  0
  3 15  1  0
  3 10  1  0
  5 16  1  0
  6 14  1  0
  7  5  1  0
  8 10  1  0
  9 18  1  0
 10 17  1  0
 11  1  1  0
 11  8  1  0
 12 11  1  0
 13  6  1  0
 13  4  2  0
 15 16  1  0
 15 13  1  0
M  END
$$$$

     RDKit          3D

 14 14  0  0  0  0  0  0  0  0999 V2000
   38.8360   37.9850   28.0870 C   0  0  0  0  0  0  0  0  0  0  0  0
   36.1500   40.1570   24.6390 O   0  0  0  0  0  0  0  0  0  0  0  0
   39.1700   40.0240   23.8420 C   0  0  0  0  0  0  0  0  0  0  0  0
   38.4070   39.5880   24.7670 N   0  0  0  0  0  0  0  0  0  0  0  0
   39.7090   40.3300   26.7080 C   0  0  0  0  0  0  0  0  0  0  0  0
   38.9370   39.3710   26.0000 C   0  0  0  0  0  0  0  0  0  0  0  0
   40.1680   38.5110   28.3130 N   0  0  0  0  0  0  0  0  0  0  0  0
   38.7320   38.1840   26.6440 O   0  0  0  0  0  0  0  0  0  0  0  0
   37.2300   39.4320   24.0270 S   0  0  0  0  0  0  0  0  0  0  0  0
   37.4560   39.9190   22.5690 O   0  0  0  0  0  0  0  0  0  0  0  0
   37.8220   38.8310   28.5980 O   0  0  0  0  0  0  0  0  0  0  0  0
   40.8180   39.3220   27.2890 C   0  0  0  0  0  0  0  0  0  0  0  0
   36.8650   37.9820   24.1790 O   0  0  0  0  0  0  0  0  0  0  0  0
   38.8410   41.0640   27.4760 O   0  0  0  0  0  0  0  0  0  0  0  0
  1  7  1  0
  1 11  1  0
  3  4  1  0
  5 12  1  0
  5 14  1  0
  6  4  1  0
  6  8  1  0
  6  5  1  0
  8  1  1  0
  9 13  1  0
  9  2  1  0
  9  4  1  0
 10  9  1  0
 12  7  1  0
M  END
$$$$

     RDKit          3D

 11 10  0  0  0  0  0  0  0  0999 V2000
   34.5360   41.0140   25.6880 O   0  0  0  0  0  0  0  0  0  0  0  0
   35.7800   38.8500   24.9130 C   0  0  0  0  0  0  0  0  0  0  0  0
   38.4870   38.3750   26.4290 S   0  0  0  0  0  0  0  0  0  0  0  0
   33.1130   39.0960   25.3420 O   0  0  0  0  0  0  0  0  0  0  0  0
   37.8260   39.9090   25.9660 C   0  0  0  0  0  0  0  0  0  0  0  0
   34.2530   39.8170   24.8430 S   0  0  0  0  0  0  0  0  0  0  0  0
   38.2990   38.7560   28.2550 C   0  0  0  0  0  0  0  0  0  0  0  0
   38.7020   37.3810   28.6680 C   0  0  0  0  0  0  0  0  0  0  0  0
   34.0720   40.2890   23.4430 O   0  0  0  0  0  0  0  0  0  0  0  0
   38.2840   41.1270   26.6080 O   0  0  0  0  0  0  0  0  0  0  0  0
   36.9640   39.8480   24.7230 C   0  0  0  0  0  0  0  0  0  0  0  0
  3  7  1  0
  5  3  1  0
  5 10  2  0
  6  2  1  0
  6  4  1  0
  6  1  1  0
  7  8  1  0
  9  6  1  0
 11  2  1  0
 11  5  1  0
M  END
$$$$

     RDKit          3D

  7  6  0  0  0  0  0  0  0  0999 V2000
   37.9920   43.2020   25.5710 O   0  0  0  0  0  0  0  0  0  0  0  0
   39.0390   42.4960   25.0700 C   0  0  0  0  0  0  0  0  0  0  0  0
   39.9940   41.6520   25.9380 C   0  0  0  0  0  0  0  0  0  0  0  0
   40.9570   40.3900   27.9460 O   0  0  0  0  0  0  0  0  0  0  0  0
   39.7400   40.4820   26.8250 C   0  0  0  0  0  0  0  0  0  0  0  0
   39.7750   39.2080   26.0980 N   0  0  0  0  0  0  0  0  0  0  0  0
   38.8940   42.2090   23.8620 O   0  0  0  0  0  0  0  0  0  0  0  0
  2  1  1  0
  2  3  1  0
  3  5  1  0
  5  6  1  0
  5  4  1  0
  7  2  2  0
M  END
$$$$

     RDKit          3D

 15 15  0  0  0  0  0  0  0  0999 V2000
   39.4780   39.3120   28.0170 O   0  0  0  0  0  0  0  0  0  0  0  0
   35.6870   43.5400   24.9050 C   0  0  0  0  0  0  0  0  0  0  0  0
   37.5860   41.8670   24.8540 C   0  0  0  0  0  0  0  0  0  0  0  0
   36.1820   42.1470   25.2650 C   0  0  0  0  0  0  0  0  0  0  0  0
   39.3190   37.0240   28.8230 N   0  0  0  0  0  0  0  0  0  0  0  0
   37.1710   38.1040   24.6890 O   0  0  0  0  0  0  0  0  0  0  0  0
   40.7460   41.0920   25.7650 O   0  0  0  0  0  0  0  0  0  0  0  0
   40.2520   38.1850   28.4890 C   0  0  0  0  0  0  0  0  0  0  0  0
   39.2360   39.2110   26.6370 C   0  0  0  0  0  0  0  0  0  0  0  0
   37.9510   40.4950   24.3330 C   0  0  0  0  0  0  0  0  0  0  0  0
   37.9070   39.4860   26.5050 C   0  0  0  0  0  0  0  0  0  0  0  0
   40.3900   40.4770   27.1340 P   0  0  0  0  0  0  0  0  0  0  0  0
   39.9910   41.4840   28.1150 O   0  0  0  0  0  0  0  0  0  0  0  0
   37.2260   39.4190   25.1680 C   0  0  0  0  0  0  0  0  0  0  0  0
   37.1790   41.9790   26.1930 O   0  0  0  0  0  0  0  0  0  0  0  0
  1  8  1  0
  3 10  1  0
  3  4  1  0
  3 15  1  0
  4  2  1  0
  4 15  1  0
  7 12  1  0
  8  5  1  0
  9 11  1  0
  9 12  1  0
  9  1  1  0
 10 14  1  0
 12 13  1  0
 14  6  1  0
 14 11  1  0
M  END
$$$$

     RDKit          3D

 20 22  0  0  0  0  0  0  0  0999 V2000
   36.6070   41.6720   24.4580 C   0  0  0  0  0  0  0  0  0  0  0  0
   36.6400   39.6480   22.7420 C   0  0  0  0  0  0  0  0  0  0  0  0
   36.7600   37.4750   23.7400 C   0  0  0  0  0  0  0  0  0  0  0  0
   37.7600   39.2070   27.5690 C   0  0  0  0  0  0  0  0  0  0  0  0
   35.3600   43.7490   24.5730 N   0  0  0  0  0  0  0  0  0  0  0  0
   37.2270   38.0230   24.9360 C   0  0  0  0  0  0  0  0  0  0  0  0
   37.6910   40.1300   26.3260 C   0  0  0  0  0  0  0  0  0  0  0  0
   40.0660   42.0170   23.9450 C   0  0  0  0  0  0  0  0  0  0  0  0
   35.3130   42.3810   24.0840 C   0  0  0  0  0  0  0  0  0  0  0  0
   38.8160   41.4850   24.5730 C   0  0  0  0  0  0  0  0  0  0  0  0
   37.7080   42.3120   24.8130 N   0  0  0  0  0  0  0  0  0  0  0  0
   39.0590   40.6730   25.9160 C   0  0  0  0  0  0  0  0  0  0  0  0
   36.5970   38.2640   22.6370 C   0  0  0  0  0  0  0  0  0  0  0  0
   38.8030   38.1560   27.5750 N   0  0  0  0  0  0  0  0  0  0  0  0
   36.2600   37.0530   21.1000 Br  0  0  0  0  0  0  0  0  0  0  0  0
   40.0440   39.5200   25.8470 C   0  0  0  0  0  0  0  0  0  0  0  0
   36.9030   40.2380   23.9960 C   0  0  0  0  0  0  0  0  0  0  0  0
   40.0820   38.6750   27.1580 C   0  0  0  0  0  0  0  0  0  0  0  0
   37.2680   39.3630   25.0700 C   0  0  0  0  0  0  0  0  0  0  0  0
   39.0380   37.5970   28.9340 C   0  0  0  0  0  0  0  0  0  0  0  0
  1  9  1  0
  1 11  1  0
  2 17  1  0
  3  6  2  0
  4 14  1  0
  6 19  1  0
  7  4  1  0
  9  5  1  0
 10  8  1  0
 10 11  1  0
 10 12  1  0
 12 16  1  0
 12  7  1  0
 13  2  2  0
 13  3  1  0
 14 20  1  0
 15 13  1  0
 16 18  1  0
 17  1  1  0
 17 19  2  0
 18 14  1  0
 19  7  1  0
M  END
$$$$

     RDKit          3D

 23 25  0  0  0  0  0  0  0  0999 V2000
   42.3870   39.3260   27.3360 C   0  0  0  0  0  0  0  0  0  0  0  0
   37.5810   38.6130   20.5740 C   0  0  0  0  0  0  0  0  0  0  0  0
   38.6150   38.3150   28.2630 O   0  0  0  0  0  0  0  0  0  0  0  0
   41.2600   40.2240   26.7900 C   0  0  0  0  0  0  0  0  0  0  0  0
   37.6820   40.9170   21.4970 C   0  0  0  0  0  0  0  0  0  0  0  0
   38.6500   40.3590   23.8100 C   0  0  0  0  0  0  0  0  0  0  0  0
   44.3630   40.7410   27.6240 O   0  0  0  0  0  0  0  0  0  0  0  0
   38.0630   42.8270   22.8910 C   0  0  0  0  0  0  0  0  0  0  0  0
   42.1070   40.7270   24.5240 C   0  0  0  0  0  0  0  0  0  0  0  0
   38.5260   39.6090   26.1870 C   0  0  0  0  0  0  0  0  0  0  0  0
   40.7090   40.5330   25.3340 C   0  0  0  0  0  0  0  0  0  0  0  0
   43.4820   40.5970   25.3070 C   0  0  0  0  0  0  0  0  0  0  0  0
   39.0170   40.7200   25.2960 C   0  0  0  0  0  0  0  0  0  0  0  0
   40.1170   39.9620   27.8100 C   0  0  0  0  0  0  0  0  0  0  0  0
   39.2430   43.3290   24.9310 C   0  0  0  0  0  0  0  0  0  0  0  0
   37.6570   41.2890   23.0760 C   0  0  0  0  0  0  0  0  0  0  0  0
   36.9430   39.8580   21.1040 C   0  0  0  0  0  0  0  0  0  0  0  0
   39.5130   38.8520   27.1470 C   0  0  0  0  0  0  0  0  0  0  0  0
   38.4340   42.2370   25.5590 C   0  0  0  0  0  0  0  0  0  0  0  0
   38.0400   38.5160   25.5150 O   0  0  0  0  0  0  0  0  0  0  0  0
   39.4410   43.1180   23.4050 N   0  0  0  0  0  0  0  0  0  0  0  0
   40.2470   40.3670   28.7890 O   0  0  0  0  0  0  0  0  0  0  0  0
   43.4240   40.1920   26.8530 C   0  0  0  0  0  0  0  0  0  0  0  0
  2 17  1  0
  4  1  1  0
  4 14  1  0
  8 16  1  0
  8 21  1  0
  9 12  1  0
  9 11  2  0
 10 20  1  0
 10 18  1  0
 11  4  1  0
 12 23  1  0
 13  6  1  0
 13 11  1  0
 13 19  1  0
 13 10  1  0
 14 22  2  0
 15 19  1  0
 16  5  1  0
 16  6  1  0
 17  5  1  0
 18 14  1  0
 18  3  1  0
 21 15  1  0
 23  1  1  0
 23  7  1  0
M  END
$$$$

     RDKit          3D

 11 11  0  0  0  0  0  0  0  0999 V2000
   39.4680   41.4500   27.5510 N   0  0  0  0  0  0  0  0  0  0  0  0
   38.7640   38.7950   27.1920 C   0  0  0  0  0  0  0  0  0  0  0  0
   38.7030   42.3600   25.2430 S   0  0  0  0  0  0  0  0  0  0  0  0
   38.8640   41.0630   26.4020 C   0  0  0  0  0  0  0  0  0  0  0  0
   37.6580   39.2090   24.9590 C   0  0  0  0  0  0  0  0  0  0  0  0
   38.4480   39.7260   26.1790 C   0  0  0  0  0  0  0  0  0  0  0  0
   39.3810   39.2210   28.3490 C   0  0  0  0  0  0  0  0  0  0  0  0
   37.3210   40.0720   24.1320 O   0  0  0  0  0  0  0  0  0  0  0  0
   39.6840   40.5420   28.5110 C   0  0  0  0  0  0  0  0  0  0  0  0
   37.3500   37.9670   24.8440 O   0  0  0  0  0  0  0  0  0  0  0  0
   39.9640   43.6410   25.2100 C   0  0  0  0  0  0  0  0  0  0  0  0
  1  9  1  0
  2  7  1  0
  3  4  1  0
  4  1  2  0
  5  6  1  0
  6  4  1  0
  6  2  2  0
  7  9  2  0
  8  5  2  0
 10  5  1  0
 11  3  1  0
M  END
$$$$

     RDKit          3D

 11 10  0  0  0  0  0  0  0  0999 V2000
   38.9800   40.2950   23.9560 O   0  0  0  0  0  0  0  0  0  0  0  0
   39.3850   40.6500   26.4030 C   0  0  0  0  0  0  0  0  0  0  0  0
   40.6450   41.6760   26.4640 C   0  0  0  0  0  0  0  0  0  0  0  0
   38.7860   39.7310   25.2730 C   0  0  0  0  0  0  0  0  0  0  0  0
   40.9300   42.2080   25.3940 O   0  0  0  0  0  0  0  0  0  0  0  0
   37.8670   38.0230   26.3360 O   0  0  0  0  0  0  0  0  0  0  0  0
   38.3050   41.8330   25.8050 C   0  0  0  0  0  0  0  0  0  0  0  0
   38.8580   43.0410   25.2440 O   0  0  0  0  0  0  0  0  0  0  0  0
   37.4350   39.1830   25.6220 C   0  0  0  0  0  0  0  0  0  0  0  0
   41.2900   41.7540   27.5020 O   0  0  0  0  0  0  0  0  0  0  0  0
   39.9810   39.4210   27.3120 N   0  0  0  0  0  0  0  0  0  0  0  0
  2  3  1  0
  2 11  1  0
  3 10  1  0
  4  1  1  0
  4  9  1  0
  4  2  1  0
  5  3  2  0
  7  2  1  0
  8  7  1  0
  9  6  1  0
M  END
$$$$

     RDKit          3D

 12 12  0  0  0  0  0  0  0  0999 V2000
   38.0660   39.8280   25.6820 N   0  0  0  0  0  0  0  0  0  0  0  0
   39.6350   39.7660   27.3490 C   0  0  0  0  0  0  0  0  0  0  0  0
   40.2710   38.0620   28.9190 N   0  0  0  0  0  0  0  0  0  0  0  0
   40.0840   39.4740   28.8200 C   0  0  0  0  0  0  0  0  0  0  0  0
   39.9030   40.9070   26.5120 C   0  0  0  0  0  0  0  0  0  0  0  0
   41.3980   40.1810   29.1200 C   0  0  0  0  0  0  0  0  0  0  0  0
   40.6320   41.6600   23.7080 O   0  0  0  0  0  0  0  0  0  0  0  0
   39.7400   40.5100   24.0490 C   0  0  0  0  0  0  0  0  0  0  0  0
   40.8190   41.8270   26.6550 O   0  0  0  0  0  0  0  0  0  0  0  0
   38.4800   39.2590   26.8580 C   0  0  0  0  0  0  0  0  0  0  0  0
   39.1500   37.2370   29.2110 C   0  0  0  0  0  0  0  0  0  0  0  0
   39.0220   40.6850   25.3210 C   0  0  0  0  0  0  0  0  0  0  0  0
  1 10  1  0
  2  4  1  0
  3 11  1  0
  4  3  1  0
  4  6  1  0
  5  9  1  0
  5  2  1  0
  7  8  1  0
 10  2  1  0
 12  8  1  0
 12  1  1  0
 12  5  1  0
M  END
$$$$

     RDKit          3D

  8  7  0  0  0  0  0  0  0  0999 V2000
   37.6840   39.6880   26.0720 C   0  0  0  0  0  0  0  0  0  0  0  0
   38.4660   38.7570   26.8500 C   0  0  0  0  0  0  0  0  0  0  0  0
   36.9540   38.8530   24.8540 S   0  0  0  0  0  0  0  0  0  0  0  0
   40.1800   41.1740   27.1850 O   0  0  0  0  0  0  0  0  0  0  0  0
   40.5310   39.7250   25.2850 O   0  0  0  0  0  0  0  0  0  0  0  0
   41.3410   38.8610   27.5890 C   0  0  0  0  0  0  0  0  0  0  0  0
   37.6110   41.1170   26.3430 O   0  0  0  0  0  0  0  0  0  0  0  0
   40.1270   39.6620   26.8790 P   0  0  0  0  0  0  0  0  0  0  0  0
  1  7  2  0
  1  2  1  0
  2  8  1  0
  3  1  1  0
  5  8  2  0
  8  4  1  0
  8  6  1  0
M  END
$$$$

     RDKit          3D

 14 15  0  0  0  0  0  0  0  0999 V2000
   35.8220   38.5800   23.7160 C   0  0  0  0  0  0  0  0  0  0  0  0
   38.7900   39.5760   25.8040 C   0  0  0  0  0  0  0  0  0  0  0  0
   39.3640   40.5990   26.7270 C   0  0  0  0  0  0  0  0  0  0  0  0
   37.3400   39.6760   25.2760 C   0  0  0  0  0  0  0  0  0  0  0  0
   35.1150   40.6840   24.7950 C   0  0  0  0  0  0  0  0  0  0  0  0
   39.7550   41.8830   26.2630 C   0  0  0  0  0  0  0  0  0  0  0  0
   40.5750   39.6330   27.0580 C   0  0  0  0  0  0  0  0  0  0  0  0
   34.8940   39.6430   23.8580 C   0  0  0  0  0  0  0  0  0  0  0  0
   39.5140   39.4710   24.5480 O   0  0  0  0  0  0  0  0  0  0  0  0
   41.5630   40.1200   27.6950 O   0  0  0  0  0  0  0  0  0  0  0  0
   38.3270   39.4260   28.2010 O   0  0  0  0  0  0  0  0  0  0  0  0
   39.5780   39.9230   27.8860 C   0  0  0  0  0  0  0  0  0  0  0  0
   36.3110   40.7160   25.5280 C   0  0  0  0  0  0  0  0  0  0  0  0
   37.0700   38.5710   24.4260 C   0  0  0  0  0  0  0  0  0  0  0  0
  1  8  2  0
  1 14  1  0
  2  9  1  0
  2  3  1  0
  3  6  1  0
  3  7  1  0
  3 12  1  0
  4 13  1  0
  4  2  1  0
  5 13  2  0
  7 10  1  0
  7 12  1  0
  8  5  1  0
 12 11  1  0
 14  4  2  0
M  END
$$$$

     RDKit          3D

 11 12  0  0  0  0  0  0  0  0999 V2000
   38.7770   39.5340   26.6870 C   0  0  0  0  0  0  0  0  0  0  0  0
   41.2750   39.3170   25.8700 C   0  0  0  0  0  0  0  0  0  0  0  0
   39.2570   38.4930   27.5930 O   0  0  0  0  0  0  0  0  0  0  0  0
   38.0600   41.8920   25.5890 C   0  0  0  0  0  0  0  0  0  0  0  0
   36.8230   40.7170   25.6910 C   0  0  0  0  0  0  0  0  0  0  0  0
   40.5670   41.8700   25.3890 C   0  0  0  0  0  0  0  0  0  0  0  0
   39.2900   41.2580   24.8710 C   0  0  0  0  0  0  0  0  0  0  0  0
   39.9530   40.1250   25.5030 C   0  0  0  0  0  0  0  0  0  0  0  0
   37.3470   38.3050   25.1610 O   0  0  0  0  0  0  0  0  0  0  0  0
   37.6330   39.4150   25.7130 C   0  0  0  0  0  0  0  0  0  0  0  0
   39.1350   40.9160   23.4050 C   0  0  0  0  0  0  0  0  0  0  0  0
  1  3  1  0
  4  5  1  0
  5 10  1  0
  6  8  1  0
  7 11  1  0
  7  6  1  0
  7  8  1  0
  7  4  1  0
  8  2  1  0
  8  1  1  0
  9 10  2  0
 10  1  1  0
M  END
$$$$

     RDKit          3D

  6  5  0  0  0  0  0  0  0  0999 V2000
   40.6770   40.6900   27.4120 O   0  0  0  0  0  0  0  0  0  0  0  0
   39.3820   38.7460   28.0260 C   0  0  0  0  0  0  0  0  0  0  0  0
   39.6950   40.3600   25.2500 C   0  0  0  0  0  0  0  0  0  0  0  0
   38.0680   40.6610   27.0560 C   0  0  0  0  0  0  0  0  0  0  0  0
   39.4800   40.0020   26.8610 C   0  0  0  0  0  0  0  0  0  0  0  0
   38.7340   37.5380   28.0660 N   0  0  0  0  0  0  0  0  0  0  0  0
  2  6  1  0
  3  5  1  0
  5  4  1  0
  5  1  1  0
  5  2  1  0
M  END
$$$$
