
     RDKit          3D

  7  6  0  0  0  0  0  0  0  0999 V2000
   44.6560   39.8200   33.3170 O   0  0  0  0  0  0  0  0  0  0  0  0
   43.6660   42.0070   30.8860 C   0  0  0  0  0  0  0  0  0  0  0  0
   43.4440   38.1670   30.7950 N   0  0  0  0  0  0  0  0  0  0  0  0
   43.1830   39.4830   32.7380 C   0  0  0  0  0  0  0  0  0  0  0  0
   43.6420   39.4850   31.3420 C   0  0  0  0  0  0  0  0  0  0  0  0
   41.9320   38.9810   32.3760 O   0  0  0  0  0  0  0  0  0  0  0  0
   42.9410   40.6470   30.5700 C   0  0  0  0  0  0  0  0  0  0  0  0
  4  1  1  0
  5  3  1  0
  5  4  1  0
  6  4  2  0
  7  2  1  0
  7  5  1  0
M  END
$$$$

     RDKit          3D

  7  6  0  0  0  0  0  0  0  0999 V2000
   42.8160   41.4970   31.1150 C   0  0  0  0  0  0  0  0  0  0  0  0
   42.3070   42.8200   30.6490 C   0  0  0  0  0  0  0  0  0  0  0  0
   43.4690   39.2040   29.9480 C   0  0  0  0  0  0  0  0  0  0  0  0
   43.8060   38.3780   31.0560 O   0  0  0  0  0  0  0  0  0  0  0  0
   44.0610   41.2460   28.9530 O   0  0  0  0  0  0  0  0  0  0  0  0
   42.0190   40.8630   32.2440 C   0  0  0  0  0  0  0  0  0  0  0  0
   43.7870   40.6540   30.2270 C   0  0  0  0  0  0  0  0  0  0  0  0
  1  6  1  0
  2  1  1  0
  3  7  1  0
  3  4  1  0
  7  5  1  0
  7  1  1  0
M  END
$$$$

     RDKit          3D

  6  5  0  0  0  0  0  0  0  0999 V2000
   42.8720   40.0080   30.2880 C   0  0  0  0  0  0  0  0  0  0  0  0
   43.3800   39.1310   31.3770 C   0  0  0  0  0  0  0  0  0  0  0  0
   44.6810   38.9700   31.6260 N   0  0  0  0  0  0  0  0  0  0  0  0
   43.3140   40.4840   29.2600 C   0  0  0  0  0  0  0  0  0  0  0  0
   42.5960   38.5150   32.1310 O   0  0  0  0  0  0  0  0  0  0  0  0
   41.5460   40.2220   30.2460 O   0  0  0  0  0  0  0  0  0  0  0  0
  1  2  1  0
  2  3  1  0
  2  5  2  0
  4  1  2  0
  6  1  1  0
M  END
$$$$

     RDKit          3D

  8  8  0  0  0  0  0  0  0  0999 V2000
   45.9610   40.9710   33.6510 Cl  0  0  0  0  0  0  0  0  0  0  0  0
   42.6500   39.2810   32.5060 C   0  0  0  0  0  0  0  0  0  0  0  0
   43.1780   40.7160   34.2410 O   0  0  0  0  0  0  0  0  0  0  0  0
   44.9300   40.0810   32.8050 C   0  0  0  0  0  0  0  0  0  0  0  0
   45.2990   39.3530   31.6390 C   0  0  0  0  0  0  0  0  0  0  0  0
   43.5730   40.0630   33.2380 C   0  0  0  0  0  0  0  0  0  0  0  0
   43.0500   38.5220   31.4020 C   0  0  0  0  0  0  0  0  0  0  0  0
   44.3650   38.5550   30.9810 C   0  0  0  0  0  0  0  0  0  0  0  0
  2  6  1  0
  4  6  1  0
  4  1  1  0
  5  4  2  0
  6  3  2  0
  7  2  1  0
  8  7  2  0
  8  5  1  0
M  END
$$$$

     RDKit          3D

  7  7  0  0  0  0  0  0  0  0999 V2000
   42.0600   39.4490   32.3210 C   0  0  0  0  0  0  0  0  0  0  0  0
   44.5300   39.7970   30.6650 C   0  0  0  0  0  0  0  0  0  0  0  0
   44.3870   40.4660   32.0710 C   0  0  0  0  0  0  0  0  0  0  0  0
   42.9200   40.7710   32.3770 C   0  0  0  0  0  0  0  0  0  0  0  0
   42.5480   38.3180   31.4380 N   0  0  0  0  0  0  0  0  0  0  0  0
   42.4530   41.9120   31.5100 C   0  0  0  0  0  0  0  0  0  0  0  0
   43.2510   38.9780   30.2620 C   0  0  0  0  0  0  0  0  0  0  0  0
  1  4  1  0
  2  3  1  0
  3  4  1  0
  4  6  1  0
  5  1  1  0
  7  2  1  0
  7  5  1  0
M  END
$$$$

     RDKit          3D

 18 18  0  0  0  0  0  0  0  0999 V2000
   42.7100   40.6560   34.6320 S   0  0  0  0  0  0  0  0  0  0  0  0
   42.7790   39.7000   36.1940 C   0  0  0  0  0  0  0  0  0  0  0  0
   45.8590   38.4120   34.0120 P   0  0  0  0  0  0  0  0  0  0  0  0
   36.9100   38.5890   24.8730 C   0  0  0  0  0  0  0  0  0  0  0  0
   43.2910   39.6710   30.7300 C   0  0  0  0  0  0  0  0  0  0  0  0
   45.7290   37.0380   34.2430 O   0  0  0  0  0  0  0  0  0  0  0  0
   36.7910   37.0410   24.7770 N   0  0  0  0  0  0  0  0  0  0  0  0
   47.0550   38.7040   32.9460 O   0  0  0  0  0  0  0  0  0  0  0  0
   40.3080   38.5530   28.2790 C   0  0  0  0  0  0  0  0  0  0  0  0
   42.9550   39.5200   33.2060 C   0  0  0  0  0  0  0  0  0  0  0  0
   39.6220   39.4530   27.3580 C   0  0  0  0  0  0  0  0  0  0  0  0
   41.1660   39.4790   29.1430 C   0  0  0  0  0  0  0  0  0  0  0  0
   38.3130   38.9290   25.3400 C   0  0  0  0  0  0  0  0  0  0  0  0
   38.2360   39.2990   26.8060 C   0  0  0  0  0  0  0  0  0  0  0  0
   44.2020   38.8940   33.3920 C   0  0  0  0  0  0  0  0  0  0  0  0
   43.9880   39.7290   32.1080 C   0  0  0  0  0  0  0  0  0  0  0  0
   42.0260   38.8850   30.2520 C   0  0  0  0  0  0  0  0  0  0  0  0
   46.1230   39.4220   35.1610 O   0  0  0  0  0  0  0  0  0  0  0  0
  1  2  1  0
  3  6  1  0
  3 18  1  0
  4 13  1  0
  7  4  1  0
  8  3  2  0
  9 12  1  0
 10 15  1  0
 10  1  1  0
 11  9  1  0
 12 17  1  0
 13 14  1  0
 14 11  1  0
 15  3  1  0
 16  5  1  0
 16 10  1  0
 16 15  1  0
 17  5  1  0
M  END
$$$$

     RDKit          3D

 13 12  0  0  0  0  0  0  0  0999 V2000
   42.3000   41.8510   31.1680 C   0  0  0  0  0  0  0  0  0  0  0  0
   42.1780   38.2670   31.9160 C   0  0  0  0  0  0  0  0  0  0  0  0
   41.9330   40.8030   33.3560 O   0  0  0  0  0  0  0  0  0  0  0  0
   47.1470   38.3310   31.8260 O   0  0  0  0  0  0  0  0  0  0  0  0
   43.0590   37.2600   32.8040 N   0  0  0  0  0  0  0  0  0  0  0  0
   45.0050   39.0580   32.6800 O   0  0  0  0  0  0  0  0  0  0  0  0
   46.8500   40.7100   32.4340 O   0  0  0  0  0  0  0  0  0  0  0  0
   42.5150   40.9960   29.9740 N   0  0  0  0  0  0  0  0  0  0  0  0
   44.2390   39.9280   31.8110 C   0  0  0  0  0  0  0  0  0  0  0  0
   47.0770   39.3080   34.0670 O   0  0  0  0  0  0  0  0  0  0  0  0
   42.8600   39.6880   31.7790 C   0  0  0  0  0  0  0  0  0  0  0  0
   46.5500   39.3680   32.7800 P   0  0  0  0  0  0  0  0  0  0  0  0
   42.2700   40.7710   32.1950 C   0  0  0  0  0  0  0  0  0  0  0  0
  1 13  1  0
  2  5  1  0
  4 12  2  0
  6 12  1  0
  7 12  1  0
  8  1  1  0
  9  6  1  0
 11  9  1  0
 11  2  1  0
 11 13  1  0
 12 10  1  0
 13  3  2  0
M  END
$$$$

     RDKit          3D

  5  4  0  0  0  0  0  0  0  0999 V2000
   44.6750   39.3330   31.2680 C   0  0  0  0  0  0  0  0  0  0  0  0
   45.8760   39.3160   32.1960 C   0  0  0  0  0  0  0  0  0  0  0  0
   47.1010   39.0520   31.8750 O   0  0  0  0  0  0  0  0  0  0  0  0
   44.7130   39.9790   30.1900 O   0  0  0  0  0  0  0  0  0  0  0  0
   43.6310   38.6750   31.6440 O   0  0  0  0  0  0  0  0  0  0  0  0
  1  5  1  0
  1  2  1  0
  3  2  1  0
  4  1  2  0
M  END
$$$$

     RDKit          3D

 10  9  0  0  0  0  0  0  0  0999 V2000
   42.6840   38.5530   30.4840 C   0  0  0  0  0  0  0  0  0  0  0  0
   43.5120   42.3090   30.0380 O   0  0  0  0  0  0  0  0  0  0  0  0
   45.4140   42.2530   32.4060 O   0  0  0  0  0  0  0  0  0  0  0  0
   44.0970   42.4710   31.5060 P   0  0  0  0  0  0  0  0  0  0  0  0
   42.5110   37.7070   31.6320 O   0  0  0  0  0  0  0  0  0  0  0  0
   42.3550   40.5510   32.3670 C   0  0  0  0  0  0  0  0  0  0  0  0
   43.6240   40.6240   31.6650 C   0  0  0  0  0  0  0  0  0  0  0  0
   43.8790   39.4320   30.7980 C   0  0  0  0  0  0  0  0  0  0  0  0
   42.8890   40.5960   34.4670 O   0  0  0  0  0  0  0  0  0  0  0  0
   42.4330   41.2950   33.5280 C   0  0  0  0  0  0  0  0  0  0  0  0
  1  8  1  0
  1  5  1  0
  2  4  1  0
  4  7  1  0
  4  3  1  0
  6 10  1  0
  7  6  1  0
  8  7  1  0
 10  9  1  0
M  END
$$$$

     RDKit          3D

 12 11  0  0  0  0  0  0  0  0999 V2000
   44.0900   39.0650   30.8760 N   0  0  0  0  0  0  0  0  0  0  0  0
   43.6800   37.7070   32.8810 O   0  0  0  0  0  0  0  0  0  0  0  0
   41.9310   39.3740   29.7690 N   0  0  0  0  0  0  0  0  0  0  0  0
   47.2390   40.0870   31.2190 O   0  0  0  0  0  0  0  0  0  0  0  0
   44.5340   38.6380   32.1990 C   0  0  0  0  0  0  0  0  0  0  0  0
   43.0260   40.0870   30.5490 C   0  0  0  0  0  0  0  0  0  0  0  0
   42.4520   40.2690   32.9950 O   0  0  0  0  0  0  0  0  0  0  0  0
   45.9190   38.1380   32.0890 C   0  0  0  0  0  0  0  0  0  0  0  0
   47.9430   39.0990   32.9130 O   0  0  0  0  0  0  0  0  0  0  0  0
   41.7810   41.8610   31.6250 C   0  0  0  0  0  0  0  0  0  0  0  0
   46.9640   39.1550   32.0730 C   0  0  0  0  0  0  0  0  0  0  0  0
   42.4380   40.7380   31.8320 C   0  0  0  0  0  0  0  0  0  0  0  0
  1  5  1  0
  4 11  2  0
  5  2  1  0
  6  3  1  0
  6  1  1  0
  6 12  1  0
  8  5  1  0
 10 12  1  0
 11  8  1  0
 11  9  1  0
 12  7  2  0
M  END
$$$$

     RDKit          3D

 11 10  0  0  0  0  0  0  0  0999 V2000
   42.4080   41.6770   31.5380 C   0  0  0  0  0  0  0  0  0  0  0  0
   42.7430   40.0790   32.8830 C   0  0  0  0  0  0  0  0  0  0  0  0
   41.9330   39.9760   33.7020 N   0  0  0  0  0  0  0  0  0  0  0  0
   44.3520   38.5960   32.0810 C   0  0  0  0  0  0  0  0  0  0  0  0
   45.7530   38.0140   32.3670 C   0  0  0  0  0  0  0  0  0  0  0  0
   42.2940   40.4450   31.5310 N   0  0  0  0  0  0  0  0  0  0  0  0
   42.9060   42.5830   32.1090 O   0  0  0  0  0  0  0  0  0  0  0  0
   44.2120   39.2690   34.4950 C   0  0  0  0  0  0  0  0  0  0  0  0
   41.7460   42.0130   30.0790 C   0  0  0  0  0  0  0  0  0  0  0  0
   43.1540   37.6570   32.2120 C   0  0  0  0  0  0  0  0  0  0  0  0
   44.2100   39.8490   32.9920 C   0  0  0  0  0  0  0  0  0  0  0  0
  1  7  2  0
  2 11  1  0
  2  3  2  0
  4 10  1  0
  4  5  1  0
  4 11  1  0
  6  1  1  0
  6  2  1  0
  9  1  1  0
 11  8  1  0
M  END
$$$$

     RDKit          3D

 16 15  0  0  0  0  0  0  0  0999 V2000
   43.1730   40.0820   26.7510 C   0  0  0  0  0  0  0  0  0  0  0  0
   43.1730   38.9360   33.5460 O   0  0  0  0  0  0  0  0  0  0  0  0
   43.6950   38.9330   26.7470 O   0  0  0  0  0  0  0  0  0  0  0  0
   40.5090   39.2850   28.7870 C   0  0  0  0  0  0  0  0  0  0  0  0
   43.1140   40.7450   25.6400 O   0  0  0  0  0  0  0  0  0  0  0  0
   42.2860   40.4370   27.8180 C   0  0  0  0  0  0  0  0  0  0  0  0
   41.4480   41.9410   29.5500 C   0  0  0  0  0  0  0  0  0  0  0  0
   41.1430   41.8550   30.7370 O   0  0  0  0  0  0  0  0  0  0  0  0
   41.2190   42.7700   28.6610 O   0  0  0  0  0  0  0  0  0  0  0  0
   42.5220   39.7950   32.9730 C   0  0  0  0  0  0  0  0  0  0  0  0
   40.7910   40.2400   27.6750 C   0  0  0  0  0  0  0  0  0  0  0  0
   42.5850   41.0410   29.1950 C   0  0  0  0  0  0  0  0  0  0  0  0
   41.9270   39.6740   31.6220 C   0  0  0  0  0  0  0  0  0  0  0  0
   42.8330   40.2510   30.5280 C   0  0  0  0  0  0  0  0  0  0  0  0
   41.4210   38.3950   31.4100 N   0  0  0  0  0  0  0  0  0  0  0  0
   42.3130   40.9520   33.2450 O   0  0  0  0  0  0  0  0  0  0  0  0
  1  6  1  0
  3  1  1  0
  5  1  2  0
  6 11  1  0
  6 12  1  0
  7  8  1  0
  9  7  2  0
 10 16  2  0
 10  2  1  0
 11  4  1  0
 12  7  1  0
 12 14  1  0
 13 15  1  0
 13 10  1  0
 14 13  1  0
M  END
$$$$

     RDKit          3D

 10 10  0  0  0  0  0  0  0  0999 V2000
   44.4490   39.2870   32.1870 C   0  0  0  0  0  0  0  0  0  0  0  0
   41.9430   39.9380   30.9510 O   0  0  0  0  0  0  0  0  0  0  0  0
   42.8610   41.9030   31.9380 C   0  0  0  0  0  0  0  0  0  0  0  0
   43.2500   38.4080   32.3170 C   0  0  0  0  0  0  0  0  0  0  0  0
   42.4930   38.8060   31.0830 C   0  0  0  0  0  0  0  0  0  0  0  0
   42.3780   37.9390   30.1650 O   0  0  0  0  0  0  0  0  0  0  0  0
   44.3320   41.2940   33.5140 C   0  0  0  0  0  0  0  0  0  0  0  0
   43.6760   40.6370   32.3270 C   0  0  0  0  0  0  0  0  0  0  0  0
   45.7580   41.0250   33.6550 N   0  0  0  0  0  0  0  0  0  0  0  0
   43.7420   42.7880   33.1290 S   0  0  0  0  0  0  0  0  0  0  0  0
  1  4  1  0
  2  5  1  0
  3  8  1  0
  3 10  1  0
  5  4  1  0
  6  5  2  0
  7  9  1  0
  8  1  1  0
  8  7  1  0
 10  7  1  0
M  END
$$$$

     RDKit          3D

 19 21  0  0  0  0  0  0  0  0999 V2000
   43.2720   39.1340   30.4090 C   0  0  0  0  0  0  0  0  0  0  0  0
   48.4020   39.5200   34.2130 O   0  0  0  0  0  0  0  0  0  0  0  0
   47.1860   39.0640   33.9020 C   0  0  0  0  0  0  0  0  0  0  0  0
   46.1780   39.5240   34.4760 N   0  0  0  0  0  0  0  0  0  0  0  0
   38.4280   40.3550   25.7400 N   0  0  0  0  0  0  0  0  0  0  0  0
   43.5940   39.4310   31.9010 C   0  0  0  0  0  0  0  0  0  0  0  0
   39.4290   39.2400   28.0220 S   0  0  0  0  0  0  0  0  0  0  0  0
   45.9390   38.4690   31.8880 C   0  0  0  0  0  0  0  0  0  0  0  0
   39.3900   40.3320   26.5870 C   0  0  0  0  0  0  0  0  0  0  0  0
   40.8190   40.0310   30.6710 C   0  0  0  0  0  0  0  0  0  0  0  0
   40.6780   41.1060   26.6670 O   0  0  0  0  0  0  0  0  0  0  0  0
   41.3730   40.4930   31.9420 N   0  0  0  0  0  0  0  0  0  0  0  0
   45.1450   39.6840   33.7660 C   0  0  0  0  0  0  0  0  0  0  0  0
   47.1530   38.4140   32.6060 C   0  0  0  0  0  0  0  0  0  0  0  0
   42.5890   40.1730   32.7690 C   0  0  0  0  0  0  0  0  0  0  0  0
   41.1520   39.3930   28.3140 C   0  0  0  0  0  0  0  0  0  0  0  0
   41.4800   40.8590   27.8430 C   0  0  0  0  0  0  0  0  0  0  0  0
   44.9200   39.2000   32.4650 C   0  0  0  0  0  0  0  0  0  0  0  0
   41.7960   39.2470   29.7600 C   0  0  0  0  0  0  0  0  0  0  0  0
  1  6  1  0
  3  2  2  0
  3  4  1  0
  5  9  2  0
  6 18  1  0
  6 15  2  0
  7 16  1  0
  8 18  2  0
  8 14  1  0
  9 11  1  0
  9  7  1  0
 10 12  2  0
 11 17  1  0
 12 15  1  0
 13  4  2  0
 14  3  1  0
 16 19  1  0
 17 16  1  0
 18 13  1  0
 19  1  2  0
 19 10  1  0
M  END
$$$$

     RDKit          3D

 12 13  0  0  0  0  0  0  0  0999 V2000
   42.5160   40.6180   29.8450 C   0  0  0  0  0  0  0  0  0  0  0  0
   41.6760   42.7390   30.8740 N   0  0  0  0  0  0  0  0  0  0  0  0
   43.3900   41.1430   33.4040 C   0  0  0  0  0  0  0  0  0  0  0  0
   43.3020   39.7650   33.2770 C   0  0  0  0  0  0  0  0  0  0  0  0
   42.1830   39.3780   29.2910 C   0  0  0  0  0  0  0  0  0  0  0  0
   42.7060   38.1980   31.3630 C   0  0  0  0  0  0  0  0  0  0  0  0
   42.8570   40.6500   31.1870 C   0  0  0  0  0  0  0  0  0  0  0  0
   42.8610   42.9880   31.6990 C   0  0  0  0  0  0  0  0  0  0  0  0
   43.2490   38.7740   34.1230 N   0  0  0  0  0  0  0  0  0  0  0  0
   42.2370   38.2080   30.0490 C   0  0  0  0  0  0  0  0  0  0  0  0
   43.0960   41.6470   32.1650 N   0  0  0  0  0  0  0  0  0  0  0  0
   42.9640   39.4450   31.8920 C   0  0  0  0  0  0  0  0  0  0  0  0
  1  7  1  0
  2  8  1  0
  4  3  2  0
  4  9  1  0
  5  1  2  0
  5 10  1  0
  6 12  1  0
  7 12  2  0
  7 11  1  0
  8 11  1  0
 10  6  2  0
 11  3  1  0
 12  4  1  0
M  END
$$$$

     RDKit          3D

 17 18  0  0  0  0  0  0  0  0999 V2000
   43.6940   39.1350   33.0500 C   0  0  0  0  0  0  0  0  0  0  0  0
   42.3900   38.3610   33.1610 C   0  0  0  0  0  0  0  0  0  0  0  0
   43.1870   41.3520   33.7990 O   0  0  0  0  0  0  0  0  0  0  0  0
   43.2650   42.0170   28.0440 C   0  0  0  0  0  0  0  0  0  0  0  0
   42.9740   41.2820   31.4400 C   0  0  0  0  0  0  0  0  0  0  0  0
   42.8800   39.1350   30.0410 C   0  0  0  0  0  0  0  0  0  0  0  0
   43.2700   40.6450   32.7940 C   0  0  0  0  0  0  0  0  0  0  0  0
   41.4420   41.0660   29.4210 C   0  0  0  0  0  0  0  0  0  0  0  0
   42.7580   40.6450   30.0470 C   0  0  0  0  0  0  0  0  0  0  0  0
   44.3810   39.0190   34.3760 N   0  0  0  0  0  0  0  0  0  0  0  0
   42.3940   37.2540   32.2450 O   0  0  0  0  0  0  0  0  0  0  0  0
   43.7540   41.1980   29.1450 N   0  0  0  0  0  0  0  0  0  0  0  0
   42.9620   42.6310   31.3510 O   0  0  0  0  0  0  0  0  0  0  0  0
   41.7390   41.9430   28.2120 C   0  0  0  0  0  0  0  0  0  0  0  0
   46.0170   37.4170   32.4950 Br  0  0  0  0  0  0  0  0  0  0  0  0
   44.6080   38.5460   32.0120 C   0  0  0  0  0  0  0  0  0  0  0  0
   44.3450   38.8290   30.6080 C   0  0  0  0  0  0  0  0  0  0  0  0
  1  2  1  0
  1 10  1  0
  4 14  1  0
  4 12  2  0
  5 13  1  0
  5  7  1  0
  6  9  1  0
  6 17  1  0
  7  1  1  0
  7  3  2  0
  9  8  1  0
  9  5  1  0
 11  2  1  0
 12  9  1  0
 14  8  2  0
 16 15  1  0
 16  1  1  0
 17 16  1  0
M  END
$$$$

     RDKit          3D

 11 10  0  0  0  0  0  0  0  0999 V2000
   44.6940   38.7290   32.5420 O   0  0  0  0  0  0  0  0  0  0  0  0
   43.6420   41.9150   32.0360 C   0  0  0  0  0  0  0  0  0  0  0  0
   45.0890   41.7180   30.4230 S   0  0  0  0  0  0  0  0  0  0  0  0
   41.7960   40.6470   32.8670 O   0  0  0  0  0  0  0  0  0  0  0  0
   47.1740   39.7870   29.9450 O   0  0  0  0  0  0  0  0  0  0  0  0
   42.7700   42.8410   31.2320 C   0  0  0  0  0  0  0  0  0  0  0  0
   43.8150   38.3320   31.3990 C   0  0  0  0  0  0  0  0  0  0  0  0
   43.0340   44.1860   31.5680 O   0  0  0  0  0  0  0  0  0  0  0  0
   45.7020   40.0310   30.6800 S   0  0  0  0  0  0  0  0  0  0  0  0
   43.0330   40.6510   32.5140 C   0  0  0  0  0  0  0  0  0  0  0  0
   45.6880   39.6020   32.3850 C   0  0  0  0  0  0  0  0  0  0  0  0
  2 10  1  0
  3  9  1  0
  3  2  1  0
  6  8  1  0
  6  2  1  0
  7  1  1  0
  9  5  2  0
  9 11  1  0
 10  4  1  0
 11  1  1  0
M  END
$$$$

     RDKit          3D

  8  7  0  0  0  0  0  0  0  0999 V2000
   43.3410   41.3360   31.8230 O   0  0  0  0  0  0  0  0  0  0  0  0
   42.2900   41.4860   29.6690 O   0  0  0  0  0  0  0  0  0  0  0  0
   42.3490   40.6990   30.8600 S   0  0  0  0  0  0  0  0  0  0  0  0
   41.1560   40.5710   31.5650 O   0  0  0  0  0  0  0  0  0  0  0  0
   44.9770   38.7080   31.7550 C   0  0  0  0  0  0  0  0  0  0  0  0
   42.8180   39.2010   30.4950 N   0  0  0  0  0  0  0  0  0  0  0  0
   44.2670   39.0310   30.4470 C   0  0  0  0  0  0  0  0  0  0  0  0
   46.2540   38.0300   31.5260 N   0  0  0  0  0  0  0  0  0  0  0  0
  2  3  1  0
  3  4  1  0
  3  1  1  0
  6  3  1  0
  7  6  1  0
  7  5  1  0
  8  5  1  0
M  END
$$$$

     RDKit          3D

 19 21  0  0  0  0  0  0  0  0999 V2000
   43.3020   39.0630   32.8720 N   0  0  0  0  0  0  0  0  0  0  0  0
   43.3050   38.6190   34.1240 C   0  0  0  0  0  0  0  0  0  0  0  0
   41.0730   35.6530   33.0370 C   0  0  0  0  0  0  0  0  0  0  0  0
   43.1390   40.4700   30.3890 N   0  0  0  0  0  0  0  0  0  0  0  0
   40.7970   36.6410   31.9300 C   0  0  0  0  0  0  0  0  0  0  0  0
   44.3730   40.9430   31.0070 C   0  0  0  0  0  0  0  0  0  0  0  0
   42.4310   42.3030   31.6410 C   0  0  0  0  0  0  0  0  0  0  0  0
   42.9290   39.2040   29.6410 C   0  0  0  0  0  0  0  0  0  0  0  0
   42.6890   37.5710   34.4700 O   0  0  0  0  0  0  0  0  0  0  0  0
   39.5280   38.9590   29.6730 C   0  0  0  0  0  0  0  0  0  0  0  0
   40.5920   38.1480   32.4560 C   0  0  0  0  0  0  0  0  0  0  0  0
   43.9100   42.2980   31.4910 C   0  0  0  0  0  0  0  0  0  0  0  0
   42.2020   40.0580   32.5390 N   0  0  0  0  0  0  0  0  0  0  0  0
   40.0250   35.4880   31.9420 C   0  0  0  0  0  0  0  0  0  0  0  0
   39.6730   39.5730   30.7970 N   0  0  0  0  0  0  0  0  0  0  0  0
   42.1280   40.8580   31.3630 C   0  0  0  0  0  0  0  0  0  0  0  0
   41.0190   39.6520   32.9910 C   0  0  0  0  0  0  0  0  0  0  0  0
   40.3380   39.7450   29.5500 N   0  0  0  0  0  0  0  0  0  0  0  0
   39.2980   38.4640   31.6830 C   0  0  0  0  0  0  0  0  0  0  0  0
  1  2  1  0
  2  9  2  0
  4  6  1  0
  4 16  1  0
  5 14  1  0
  5 11  1  0
  5  3  1  0
  6 12  1  0
  8  4  1  0
 10 15  1  0
 11 19  1  0
 11 17  1  0
 12  7  1  0
 13  1  1  0
 13 17  1  0
 14  3  1  0
 15 19  1  0
 16  7  1  0
 16 13  1  0
 18 10  1  0
 18 15  1  0
M  END
$$$$

     RDKit          3D

 12 13  0  0  0  0  0  0  0  0999 V2000
   41.7990   39.2310   33.4300 C   0  0  0  0  0  0  0  0  0  0  0  0
   40.0650   39.3370   28.9670 C   0  0  0  0  0  0  0  0  0  0  0  0
   39.2310   39.9280   26.8120 C   0  0  0  0  0  0  0  0  0  0  0  0
   41.9070   37.8700   31.2200 C   0  0  0  0  0  0  0  0  0  0  0  0
   42.0410   39.4380   31.8270 P   0  0  0  0  0  0  0  0  0  0  0  0
   42.7290   38.6070   30.2970 N   0  0  0  0  0  0  0  0  0  0  0  0
   38.0950   39.4950   25.9450 C   0  0  0  0  0  0  0  0  0  0  0  0
   39.2540   39.1930   28.1930 C   0  0  0  0  0  0  0  0  0  0  0  0
   41.2930   40.4790   30.7880 O   0  0  0  0  0  0  0  0  0  0  0  0
   39.9020   39.8570   30.3670 C   0  0  0  0  0  0  0  0  0  0  0  0
   43.0330   40.0480   32.7650 O   0  0  0  0  0  0  0  0  0  0  0  0
   38.6850   38.8130   24.7770 C   0  0  0  0  0  0  0  0  0  0  0  0
  2 10  1  0
  3  8  1  0
  4  5  1  0
  5 11  1  0
  5  1  1  0
  6  4  1  0
  6  5  1  0
  7  3  1  0
  8  2  1  0
  9  5  1  0
 10  9  1  0
 11  1  1  0
 12  7  1  0
M  END
$$$$
