
     RDKit          3D

 17 17  0  0  0  0  0  0  0  0999 V2000
   35.9440   36.9540   20.7080 C   0  0  0  0  0  0  0  0  0  0  0  0
   36.8440   37.8580   19.8420 C   0  0  0  0  0  0  0  0  0  0  0  0
   35.5270   38.2180   22.7030 C   0  0  0  0  0  0  0  0  0  0  0  0
   40.5410   36.9370   20.1650 O   0  0  0  0  0  0  0  0  0  0  0  0
   39.1290   36.7200   20.0190 C   0  0  0  0  0  0  0  0  0  0  0  0
   38.3460   38.0230   20.3150 C   0  0  0  0  0  0  0  0  0  0  0  0
   36.8960   37.4670   18.5250 O   0  0  0  0  0  0  0  0  0  0  0  0
   32.7200   38.2470   17.9610 O   0  0  0  0  0  0  0  0  0  0  0  0
   32.9930   37.0680   18.0080 C   0  0  0  0  0  0  0  0  0  0  0  0
   34.4120   37.1170   20.6220 C   0  0  0  0  0  0  0  0  0  0  0  0
   37.2360   36.3240   22.7930 C   0  0  0  0  0  0  0  0  0  0  0  0
   33.1120   35.1080   19.6630 C   0  0  0  0  0  0  0  0  0  0  0  0
   33.7910   38.7660   20.6260 S   0  0  0  0  0  0  0  0  0  0  0  0
   36.7330   38.6820   22.1990 O   0  0  0  0  0  0  0  0  0  0  0  0
   38.9270   38.5920   21.5190 O   0  0  0  0  0  0  0  0  0  0  0  0
   34.0160   36.3730   19.1400 S   0  0  0  0  0  0  0  0  0  0  0  0
   36.4200   37.3700   22.1380 C   0  0  0  0  0  0  0  0  0  0  0  0
  1  2  1  0
  1 17  1  0
  2  7  1  0
  2  6  1  0
  5  4  1  0
  5  6  1  0
  6 15  1  0
  8  9  2  0
  9 16  1  0
 10 13  1  0
 10  1  1  0
 14  3  1  0
 16 12  1  0
 16 10  1  0
 17 14  1  0
 17  3  1  0
 17 11  1  0
M  END
$$$$

     RDKit          3D

 17 18  0  0  0  0  0  0  0  0999 V2000
   35.3760   36.1260   18.0050 C   0  0  0  0  0  0  0  0  0  0  0  0
   39.1690   38.4390   23.5100 N   0  0  0  0  0  0  0  0  0  0  0  0
   36.3730   36.9590   21.6890 O   0  0  0  0  0  0  0  0  0  0  0  0
   34.1540   39.7770   17.4960 O   0  0  0  0  0  0  0  0  0  0  0  0
   32.8480   38.8970   17.6850 C   0  0  0  0  0  0  0  0  0  0  0  0
   33.8280   36.2550   18.1870 S   0  0  0  0  0  0  0  0  0  0  0  0
   35.0480   37.2130   21.1530 C   0  0  0  0  0  0  0  0  0  0  0  0
   37.5330   36.3530   20.9770 C   0  0  0  0  0  0  0  0  0  0  0  0
   38.3200   38.1440   22.4300 C   0  0  0  0  0  0  0  0  0  0  0  0
   33.2090   37.9170   18.7310 C   0  0  0  0  0  0  0  0  0  0  0  0
   38.5240   35.6360   23.0420 N   0  0  0  0  0  0  0  0  0  0  0  0
   36.0550   37.6450   19.8410 C   0  0  0  0  0  0  0  0  0  0  0  0
   37.4340   37.2560   19.7950 O   0  0  0  0  0  0  0  0  0  0  0  0
   36.3540   36.8690   18.7270 C   0  0  0  0  0  0  0  0  0  0  0  0
   33.9050   38.8520   19.6540 C   0  0  0  0  0  0  0  0  0  0  0  0
   34.1650   38.4790   21.1740 C   0  0  0  0  0  0  0  0  0  0  0  0
   38.6280   36.7340   21.9640 C   0  0  0  0  0  0  0  0  0  0  0  0
  1  6  1  0
  1 14  2  0
  4  5  1  0
  6 10  1  0
  7 16  1  0
  7  3  1  0
  8  3  1  0
  8 17  1  0
  9  2  1  0
 10  5  1  0
 10 15  1  0
 12 14  1  0
 12  7  1  0
 13 12  1  0
 13  8  1  0
 15 16  1  0
 17  9  1  0
 17 11  1  0
M  END
$$$$

     RDKit          3D

 10 11  0  0  0  0  0  0  0  0999 V2000
   38.1660   40.2060   20.8200 O   0  0  0  0  0  0  0  0  0  0  0  0
   38.1770   37.4220   21.9150 C   0  0  0  0  0  0  0  0  0  0  0  0
   39.6720   37.5550   21.8410 C   0  0  0  0  0  0  0  0  0  0  0  0
   36.0310   39.5880   19.8400 C   0  0  0  0  0  0  0  0  0  0  0  0
   36.1780   38.9060   22.1890 C   0  0  0  0  0  0  0  0  0  0  0  0
   37.1500   38.2650   21.2870 N   0  0  0  0  0  0  0  0  0  0  0  0
   37.4780   39.1640   20.1750 C   0  0  0  0  0  0  0  0  0  0  0  0
   39.0280   36.6230   20.9660 C   0  0  0  0  0  0  0  0  0  0  0  0
   36.8380   39.7900   23.0950 O   0  0  0  0  0  0  0  0  0  0  0  0
   35.4050   39.8260   21.1580 C   0  0  0  0  0  0  0  0  0  0  0  0
  3  2  1  0
  4  7  1  0
  4 10  1  0
  5  9  1  0
  6  2  1  0
  6  5  1  0
  7  1  1  0
  7  6  1  0
  8  3  1  0
  8  2  1  0
 10  5  1  0
M  END
$$$$

     RDKit          3D

 17 18  0  0  0  0  0  0  0  0999 V2000
   31.6570   35.5340   21.6870 C   0  0  0  0  0  0  0  0  0  0  0  0
   36.6400   41.0220   20.1940 C   0  0  0  0  0  0  0  0  0  0  0  0
   31.9420   35.9560   19.3420 C   0  0  0  0  0  0  0  0  0  0  0  0
   35.3470   41.1110   20.7120 C   0  0  0  0  0  0  0  0  0  0  0  0
   29.9540   34.8810   20.1720 C   0  0  0  0  0  0  0  0  0  0  0  0
   35.0810   38.6780   21.1870 C   0  0  0  0  0  0  0  0  0  0  0  0
   30.4170   34.9800   21.4440 C   0  0  0  0  0  0  0  0  0  0  0  0
   36.0000   38.0140   22.0460 C   0  0  0  0  0  0  0  0  0  0  0  0
   37.0660   35.9370   22.7390 N   0  0  0  0  0  0  0  0  0  0  0  0
   33.8120   36.6060   20.9590 C   0  0  0  0  0  0  0  0  0  0  0  0
   37.0200   38.8200   22.8580 C   0  0  0  0  0  0  0  0  0  0  0  0
   34.6500   39.8890   21.0750 O   0  0  0  0  0  0  0  0  0  0  0  0
   34.8180   35.8580   21.7140 C   0  0  0  0  0  0  0  0  0  0  0  0
   30.7420   35.3810   19.0770 C   0  0  0  0  0  0  0  0  0  0  0  0
   35.9880   36.6580   22.1790 C   0  0  0  0  0  0  0  0  0  0  0  0
   34.0360   37.8620   20.5750 N   0  0  0  0  0  0  0  0  0  0  0  0
   32.3980   36.0210   20.6420 C   0  0  0  0  0  0  0  0  0  0  0  0
  2  4  1  0
  3 17  1  0
  4 12  1  0
  5  7  2  0
  6  8  1  0
  7  1  1  0
  8 15  1  0
  8 11  1  0
 10 13  2  0
 12  6  1  0
 13 15  1  0
 14  3  2  0
 14  5  1  0
 15  9  1  0
 16 10  1  0
 16  6  2  0
 17 10  1  0
 17  1  2  0
M  END
$$$$

     RDKit          3D

  7  6  0  0  0  0  0  0  0  0999 V2000
   38.5690   36.7150   21.3460 O   0  0  0  0  0  0  0  0  0  0  0  0
   35.5740   40.1700   21.8090 N   0  0  0  0  0  0  0  0  0  0  0  0
   37.3200   39.0050   22.0430 O   0  0  0  0  0  0  0  0  0  0  0  0
   37.4590   36.3320   20.9880 C   0  0  0  0  0  0  0  0  0  0  0  0
   36.6230   37.0320   19.9450 C   0  0  0  0  0  0  0  0  0  0  0  0
   35.5280   37.9040   20.7570 C   0  0  0  0  0  0  0  0  0  0  0  0
   36.2810   39.0800   21.4350 C   0  0  0  0  0  0  0  0  0  0  0  0
  4  1  2  0
  5  6  1  0
  5  4  1  0
  6  7  1  0
  7  2  1  0
  7  3  2  0
M  END
$$$$

     RDKit          3D

 11 10  0  0  0  0  0  0  0  0999 V2000
   37.2690   38.6810   20.9610 O   0  0  0  0  0  0  0  0  0  0  0  0
   36.1840   37.6130   21.4380 P   0  0  0  0  0  0  0  0  0  0  0  0
   33.7650   36.0910   18.3470 C   0  0  0  0  0  0  0  0  0  0  0  0
   36.3380   37.0180   17.8120 O   0  0  0  0  0  0  0  0  0  0  0  0
   35.6270   36.6540   20.2390 O   0  0  0  0  0  0  0  0  0  0  0  0
   33.3390   36.2790   17.1980 O   0  0  0  0  0  0  0  0  0  0  0  0
   33.1770   35.3670   19.3230 N   0  0  0  0  0  0  0  0  0  0  0  0
   34.8940   38.3890   18.6260 O   0  0  0  0  0  0  0  0  0  0  0  0
   36.7440   36.7220   22.4920 O   0  0  0  0  0  0  0  0  0  0  0  0
   35.1840   37.0830   18.6960 P   0  0  0  0  0  0  0  0  0  0  0  0
   34.9850   38.3180   21.9910 O   0  0  0  0  0  0  0  0  0  0  0  0
  1  2  2  0
  2 11  1  0
  2  9  1  0
  3 10  1  0
  3  7  1  0
  5  2  1  0
  6  3  2  0
  8 10  1  0
 10  4  2  0
 10  5  1  0
M  END
$$$$

     RDKit          3D

 23 23  0  0  0  0  0  0  0  0999 V2000
   40.0900   38.2920   19.4740 O   0  0  0  0  0  0  0  0  0  0  0  0
   37.3390   36.3660   22.4480 C   0  0  0  0  0  0  0  0  0  0  0  0
   37.5810   37.9560   22.0360 C   0  0  0  0  0  0  0  0  0  0  0  0
   39.0150   37.9210   20.0550 C   0  0  0  0  0  0  0  0  0  0  0  0
   36.6690   37.1290   19.0740 O   0  0  0  0  0  0  0  0  0  0  0  0
   32.8200   35.9650   21.2430 C   0  0  0  0  0  0  0  0  0  0  0  0
   35.4890   37.2610   21.1050 C   0  0  0  0  0  0  0  0  0  0  0  0
   37.9890   37.1520   19.2720 C   0  0  0  0  0  0  0  0  0  0  0  0
   34.7570   36.5020   20.0000 C   0  0  0  0  0  0  0  0  0  0  0  0
   36.0440   36.1070   21.8620 C   0  0  0  0  0  0  0  0  0  0  0  0
   33.2900   36.0390   22.5220 F   0  0  0  0  0  0  0  0  0  0  0  0
   30.1150   33.4930   21.7890 O   0  0  0  0  0  0  0  0  0  0  0  0
   33.8320   35.3580   20.3130 C   0  0  0  0  0  0  0  0  0  0  0  0
   31.6580   35.2580   21.6690 C   0  0  0  0  0  0  0  0  0  0  0  0
   38.3920   37.2750   17.8210 C   0  0  0  0  0  0  0  0  0  0  0  0
   30.7210   34.3760   20.9320 C   0  0  0  0  0  0  0  0  0  0  0  0
   30.3130   34.5410   19.7810 O   0  0  0  0  0  0  0  0  0  0  0  0
   32.4460   37.1190   20.7110 F   0  0  0  0  0  0  0  0  0  0  0  0
   36.5320   38.3370   21.0840 N   0  0  0  0  0  0  0  0  0  0  0  0
   38.9050   37.9630   21.3890 N   0  0  0  0  0  0  0  0  0  0  0  0
   37.5700   36.1840   17.1970 O   0  0  0  0  0  0  0  0  0  0  0  0
   30.8390   36.1310   22.1880 F   0  0  0  0  0  0  0  0  0  0  0  0
   38.1450   38.7430   17.2950 C   0  0  0  0  0  0  0  0  0  0  0  0
  1  4  2  0
  3 20  1  0
  3  2  1  0
  4 20  1  0
  6 14  1  0
  6 11  1  0
  7  9  1  0
  7 10  1  0
  8  5  1  0
  8  4  1  0
  9 13  1  0
 10  2  1  0
 13  6  1  0
 14 22  1  0
 15 23  1  0
 15  8  1  0
 16 14  1  0
 16 12  1  0
 17 16  2  0
 18  6  1  0
 19  7  1  0
 19  3  1  0
 21 15  1  0
M  END
$$$$

     RDKit          3D

  5  4  0  0  0  0  0  0  0  0999 V2000
   36.6200   37.6020   19.7330 C   0  0  0  0  0  0  0  0  0  0  0  0
   34.9760   38.7240   21.4780 O   0  0  0  0  0  0  0  0  0  0  0  0
   35.8060   37.5870   21.0130 C   0  0  0  0  0  0  0  0  0  0  0  0
   34.5140   36.6330   20.3280 C   0  0  0  0  0  0  0  0  0  0  0  0
   35.9360   36.7490   22.0260 C   0  0  0  0  0  0  0  0  0  0  0  0
  1  3  1  0
  3  2  1  0
  3  5  1  0
  4  3  1  0
M  END
$$$$

     RDKit          3D

 21 22  0  0  0  0  0  0  0  0999 V2000
   33.6390   36.7020   20.7160 C   0  0  0  0  0  0  0  0  0  0  0  0
   28.8990   35.1490   20.9690 C   0  0  0  0  0  0  0  0  0  0  0  0
   32.0590   38.3180   20.7100 O   0  0  0  0  0  0  0  0  0  0  0  0
   36.3480   35.6200   22.1470 O   0  0  0  0  0  0  0  0  0  0  0  0
   37.6710   37.9750   21.5690 N   0  0  0  0  0  0  0  0  0  0  0  0
   38.2480   39.0760   21.4490 C   0  0  0  0  0  0  0  0  0  0  0  0
   31.1360   36.0910   21.0790 C   0  0  0  0  0  0  0  0  0  0  0  0
   39.5650   37.6140   20.8480 C   0  0  0  0  0  0  0  0  0  0  0  0
   27.6320   35.4990   20.9330 O   0  0  0  0  0  0  0  0  0  0  0  0
   39.7810   39.0230   21.2120 C   0  0  0  0  0  0  0  0  0  0  0  0
   38.4720   36.9760   21.0860 C   0  0  0  0  0  0  0  0  0  0  0  0
   35.9810   39.0810   22.5760 O   0  0  0  0  0  0  0  0  0  0  0  0
   34.2900   36.9120   21.9910 N   0  0  0  0  0  0  0  0  0  0  0  0
   29.7910   36.2880   20.8710 C   0  0  0  0  0  0  0  0  0  0  0  0
   36.4380   38.0570   22.1350 C   0  0  0  0  0  0  0  0  0  0  0  0
   30.7500   33.7330   21.5040 C   0  0  0  0  0  0  0  0  0  0  0  0
   35.6830   36.7770   22.1070 C   0  0  0  0  0  0  0  0  0  0  0  0
   29.4490   33.8520   21.0780 C   0  0  0  0  0  0  0  0  0  0  0  0
   31.5960   34.8100   21.4720 C   0  0  0  0  0  0  0  0  0  0  0  0
   34.3680   36.2660   19.6780 C   0  0  0  0  0  0  0  0  0  0  0  0
   32.1250   37.0480   20.7860 C   0  0  0  0  0  0  0  0  0  0  0  0
  1 21  1  0
  1 13  1  0
  2 18  1  0
  3 21  2  0
  5 15  1  0
  6  5  1  0
  7 19  2  0
  8 11  1  0
  8 10  1  0
  9  2  1  0
 10  6  1  0
 11  5  1  0
 13 17  1  0
 14  2  2  0
 14  7  1  0
 15 12  2  0
 17 15  1  0
 17  4  2  0
 18 16  2  0
 19 16  1  0
 20  1  2  0
 21  7  1  0
M  END
$$$$

     RDKit          3D

  6  5  0  0  0  0  0  0  0  0999 V2000
   35.6390   37.8840   20.9060 C   0  0  0  0  0  0  0  0  0  0  0  0
   33.3030   37.5810   20.4420 N   0  0  0  0  0  0  0  0  0  0  0  0
   34.5540   38.2140   19.9140 C   0  0  0  0  0  0  0  0  0  0  0  0
   31.9190   39.3510   19.3280 S   0  0  0  0  0  0  0  0  0  0  0  0
   36.7070   37.0270   20.3580 N   0  0  0  0  0  0  0  0  0  0  0  0
   32.3800   38.4110   20.7830 C   0  0  0  0  0  0  0  0  0  0  0  0
  2  6  1  0
  3  2  1  0
  3  1  1  0
  4  6  1  0
  5  1  1  0
M  END
$$$$

     RDKit          3D

  5  4  0  0  0  0  0  0  0  0999 V2000
   37.5110   37.4240   20.3960 O   0  0  0  0  0  0  0  0  0  0  0  0
   36.8010   37.4030   21.6660 P   0  0  0  0  0  0  0  0  0  0  0  0
   37.1620   38.6660   22.3370 O   0  0  0  0  0  0  0  0  0  0  0  0
   37.2720   36.3080   22.5740 O   0  0  0  0  0  0  0  0  0  0  0  0
   35.4090   37.1840   21.3470 O   0  0  0  0  0  0  0  0  0  0  0  0
  1  2  2  0
  2  3  1  0
  2  4  1  0
  5  2  1  0
M  END
$$$$

     RDKit          3D

 19 19  0  0  0  0  0  0  0  0999 V2000
   35.0960   36.2860   20.7850 C   0  0  0  0  0  0  0  0  0  0  0  0
   30.0980   33.9160   21.7300 O   0  0  0  0  0  0  0  0  0  0  0  0
   29.5100   34.4860   21.1360 C   0  0  0  0  0  0  0  0  0  0  0  0
   36.1530   37.2610   23.3010 O   0  0  0  0  0  0  0  0  0  0  0  0
   31.5340   37.7680   19.2610 C   0  0  0  0  0  0  0  0  0  0  0  0
   33.7700   36.3490   21.6580 C   0  0  0  0  0  0  0  0  0  0  0  0
   30.0420   37.6460   19.6290 C   0  0  0  0  0  0  0  0  0  0  0  0
   31.5060   35.5340   20.9040 O   0  0  0  0  0  0  0  0  0  0  0  0
   29.5450   36.1790   19.4850 C   0  0  0  0  0  0  0  0  0  0  0  0
   36.9520   37.5970   19.7050 C   0  0  0  0  0  0  0  0  0  0  0  0
   38.8330   38.4310   21.8420 C   0  0  0  0  0  0  0  0  0  0  0  0
   37.4660   38.9890   22.1860 C   0  0  0  0  0  0  0  0  0  0  0  0
   32.9780   35.4860   21.0470 C   0  0  0  0  0  0  0  0  0  0  0  0
   30.4510   35.0600   20.0300 C   0  0  0  0  0  0  0  0  0  0  0  0
   35.9160   37.5640   20.8990 C   0  0  0  0  0  0  0  0  0  0  0  0
   38.1500   38.5230   19.2920 C   0  0  0  0  0  0  0  0  0  0  0  0
   33.4960   37.3080   22.4260 O   0  0  0  0  0  0  0  0  0  0  0  0
   39.2010   38.6130   20.3790 C   0  0  0  0  0  0  0  0  0  0  0  0
   36.4460   37.8610   22.2630 C   0  0  0  0  0  0  0  0  0  0  0  0
  1  6  1  0
  3  2  1  0
  5  7  1  0
  6 17  2  0
  8 13  1  0
  9  7  1  0
 10 15  1  0
 11 12  1  0
 12 19  1  0
 13  6  1  0
 14  9  1  0
 14  8  1  0
 14  3  1  0
 15  1  1  0
 15 19  1  0
 16 10  1  0
 16 18  1  0
 18 11  1  0
 19  4  2  0
M  END
$$$$

     RDKit          3D

  9  9  0  0  0  0  0  0  0  0999 V2000
   35.0010   39.8890   20.9570 O   0  0  0  0  0  0  0  0  0  0  0  0
   36.4420   36.6370   20.1720 C   0  0  0  0  0  0  0  0  0  0  0  0
   37.3050   35.8570   20.5160 O   0  0  0  0  0  0  0  0  0  0  0  0
   36.6520   38.0680   22.1280 C   0  0  0  0  0  0  0  0  0  0  0  0
   35.8440   36.8260   19.2300 O   0  0  0  0  0  0  0  0  0  0  0  0
   35.9140   37.7290   20.8770 C   0  0  0  0  0  0  0  0  0  0  0  0
   38.1430   38.2570   21.9470 C   0  0  0  0  0  0  0  0  0  0  0  0
   36.3300   40.3880   22.6980 O   0  0  0  0  0  0  0  0  0  0  0  0
   35.8670   39.3740   21.8220 C   0  0  0  0  0  0  0  0  0  0  0  0
  1  9  1  0
  2  3  1  0
  4  7  1  0
  5  2  2  0
  6  2  1  0
  6  9  1  0
  6  4  1  0
  9  4  1  0
  9  8  1  0
M  END
$$$$

     RDKit          3D

 13 13  0  0  0  0  0  0  0  0999 V2000
   36.7570   37.0660   21.7730 C   0  0  0  0  0  0  0  0  0  0  0  0
   33.5000   36.7200   19.2880 C   0  0  0  0  0  0  0  0  0  0  0  0
   34.5540   36.4790   21.6260 O   0  0  0  0  0  0  0  0  0  0  0  0
   33.2770   35.3400   18.8230 S   0  0  0  0  0  0  0  0  0  0  0  0
   35.6240   37.6060   22.4960 C   0  0  0  0  0  0  0  0  0  0  0  0
   34.4970   36.9540   20.4720 C   0  0  0  0  0  0  0  0  0  0  0  0
   36.7290   35.8300   22.4760 N   0  0  0  0  0  0  0  0  0  0  0  0
   35.6880   39.1040   22.5700 C   0  0  0  0  0  0  0  0  0  0  0  0
   35.2860   37.9640   20.1980 C   0  0  0  0  0  0  0  0  0  0  0  0
   37.6730   38.9880   23.2690 O   0  0  0  0  0  0  0  0  0  0  0  0
   36.8150   38.0810   20.1940 S   0  0  0  0  0  0  0  0  0  0  0  0
   31.6620   35.8140   18.2560 C   0  0  0  0  0  0  0  0  0  0  0  0
   36.6420   39.4930   23.4660 C   0  0  0  0  0  0  0  0  0  0  0  0
  1  7  1  0
  1  5  1  0
  3  5  1  0
  4  2  1  0
  5  8  1  0
  6  2  1  0
  6  3  1  0
  8 13  1  0
  9  6  1  0
 10 13  1  0
 11  9  1  0
 11  1  1  0
 12  4  1  0
M  END
$$$$

     RDKit          3D

 11 11  0  0  0  0  0  0  0  0999 V2000
   34.7460   39.6020   20.3140 C   0  0  0  0  0  0  0  0  0  0  0  0
   35.3270   40.9670   20.8390 C   0  0  0  0  0  0  0  0  0  0  0  0
   37.0620   38.7100   21.0850 C   0  0  0  0  0  0  0  0  0  0  0  0
   37.5000   40.1960   21.1560 C   0  0  0  0  0  0  0  0  0  0  0  0
   35.5610   38.6130   20.7660 C   0  0  0  0  0  0  0  0  0  0  0  0
   37.7240   36.3050   21.4120 C   0  0  0  0  0  0  0  0  0  0  0  0
   39.0390   37.9730   22.3600 O   0  0  0  0  0  0  0  0  0  0  0  0
   38.5810   35.5760   22.0330 O   0  0  0  0  0  0  0  0  0  0  0  0
   38.1100   37.7140   21.4050 C   0  0  0  0  0  0  0  0  0  0  0  0
   36.6720   41.0450   20.2230 C   0  0  0  0  0  0  0  0  0  0  0  0
   37.2630   35.9150   20.1570 F   0  0  0  0  0  0  0  0  0  0  0  0
  1  5  1  0
  1  2  1  0
  3  4  1  0
  3  9  1  0
  5  3  2  0
  6 11  1  0
  6  8  1  0
  9  6  1  0
  9  7  1  0
 10  2  1  0
 10  4  1  0
M  END
$$$$

     RDKit          3D

 11 11  0  0  0  0  0  0  0  0999 V2000
   36.8660   37.5450   20.2490 N   0  0  0  0  0  0  0  0  0  0  0  0
   37.5270   39.2480   23.2640 O   0  0  0  0  0  0  0  0  0  0  0  0
   36.2760   38.5230   22.6280 C   0  0  0  0  0  0  0  0  0  0  0  0
   35.5760   35.9820   18.8200 C   0  0  0  0  0  0  0  0  0  0  0  0
   37.8000   39.8820   20.9240 C   0  0  0  0  0  0  0  0  0  0  0  0
   36.8470   38.7550   21.2000 C   0  0  0  0  0  0  0  0  0  0  0  0
   37.2860   38.1110   19.2840 C   0  0  0  0  0  0  0  0  0  0  0  0
   36.5010   37.6970   17.7680 C   0  0  0  0  0  0  0  0  0  0  0  0
   36.5530   36.2500   17.9010 C   0  0  0  0  0  0  0  0  0  0  0  0
   35.8330   36.5290   20.2080 C   0  0  0  0  0  0  0  0  0  0  0  0
   36.9830   41.0090   20.7500 O   0  0  0  0  0  0  0  0  0  0  0  0
  1  6  1  0
  3  2  1  0
  4 10  1  0
  5  6  1  0
  6  3  1  0
  7  1  1  0
  8  9  1  0
  8  7  1  0
  9  4  1  0
 10  1  1  0
 11  5  1  0
M  END
$$$$

     RDKit          3D

 13 12  0  0  0  0  0  0  0  0999 V2000
   36.1360   37.8210   23.0470 C   0  0  0  0  0  0  0  0  0  0  0  0
   35.8070   39.4670   21.3500 O   0  0  0  0  0  0  0  0  0  0  0  0
   35.6760   38.2570   21.6780 C   0  0  0  0  0  0  0  0  0  0  0  0
   34.2790   35.2030   17.8260 O   0  0  0  0  0  0  0  0  0  0  0  0
   34.3650   37.6120   19.6540 C   0  0  0  0  0  0  0  0  0  0  0  0
   35.8220   36.4660   23.3610 C   0  0  0  0  0  0  0  0  0  0  0  0
   33.3720   36.5070   19.5500 C   0  0  0  0  0  0  0  0  0  0  0  0
   33.6800   38.7610   19.8940 O   0  0  0  0  0  0  0  0  0  0  0  0
   36.3210   35.4360   22.5260 C   0  0  0  0  0  0  0  0  0  0  0  0
   33.3940   36.0240   18.2140 C   0  0  0  0  0  0  0  0  0  0  0  0
   32.4670   36.4800   17.5030 O   0  0  0  0  0  0  0  0  0  0  0  0
   35.2930   37.1710   20.7310 C   0  0  0  0  0  0  0  0  0  0  0  0
   36.4630   36.7040   20.1220 O   0  0  0  0  0  0  0  0  0  0  0  0
  1  6  1  0
  2  3  2  0
  3  1  1  0
  4 10  1  0
  5  8  1  0
  5 12  1  0
  7  5  1  0
  9  6  1  0
 10  7  1  0
 11 10  2  0
 12 13  1  0
 12  3  1  0
M  END
$$$$

     RDKit          3D

 10  9  0  0  0  0  0  0  0  0999 V2000
   37.9150   41.2130   22.9110 O   0  0  0  0  0  0  0  0  0  0  0  0
   36.3650   39.8140   18.2520 C   0  0  0  0  0  0  0  0  0  0  0  0
   37.1440   38.7230   18.7370 C   0  0  0  0  0  0  0  0  0  0  0  0
   37.5390   39.8870   22.5540 C   0  0  0  0  0  0  0  0  0  0  0  0
   36.9450   40.0690   21.1540 C   0  0  0  0  0  0  0  0  0  0  0  0
   37.6570   37.6430   20.8670 O   0  0  0  0  0  0  0  0  0  0  0  0
   36.8480   38.6930   20.3370 C   0  0  0  0  0  0  0  0  0  0  0  0
   37.5950   38.0160   17.3700 C   0  0  0  0  0  0  0  0  0  0  0  0
   35.0410   39.6420   17.9040 O   0  0  0  0  0  0  0  0  0  0  0  0
   37.7130   38.8550   23.6860 O   0  0  0  0  0  0  0  0  0  0  0  0
  2  3  1  0
  3  8  1  0
  3  7  1  0
  4  1  2  0
  4 10  1  0
  5  4  1  0
  7  6  1  0
  7  5  1  0
  9  2  1  0
M  END
$$$$

     RDKit          3D

 12 12  0  0  0  0  0  0  0  0999 V2000
   36.4920   38.4880   20.7830 C   0  0  0  0  0  0  0  0  0  0  0  0
   35.6130   36.3710   21.4350 C   0  0  0  0  0  0  0  0  0  0  0  0
   38.7510   39.2140   20.8620 O   0  0  0  0  0  0  0  0  0  0  0  0
   33.7000   35.3830   19.9610 C   0  0  0  0  0  0  0  0  0  0  0  0
   34.5170   36.5340   20.5450 C   0  0  0  0  0  0  0  0  0  0  0  0
   36.5960   37.3540   21.6290 C   0  0  0  0  0  0  0  0  0  0  0  0
   37.5800   37.2020   22.5520 O   0  0  0  0  0  0  0  0  0  0  0  0
   35.2600   38.7100   20.1440 C   0  0  0  0  0  0  0  0  0  0  0  0
   32.9660   38.1220   19.5490 N   0  0  0  0  0  0  0  0  0  0  0  0
   34.2330   37.7990   20.1450 C   0  0  0  0  0  0  0  0  0  0  0  0
   37.6210   39.3530   20.3450 C   0  0  0  0  0  0  0  0  0  0  0  0
   37.3550   40.1650   19.3910 O   0  0  0  0  0  0  0  0  0  0  0  0
  1  6  1  0
  2  6  2  0
  4  5  1  0
  5  2  1  0
  6  7  1  0
  8 10  1  0
  8  1  2  0
  9 10  1  0
 10  5  2  0
 11  1  1  0
 11  3  1  0
 12 11  2  0
M  END
$$$$

     RDKit          3D

 14 13  0  0  0  0  0  0  0  0999 V2000
   38.1160   40.6780   19.8780 C   0  0  0  0  0  0  0  0  0  0  0  0
   37.1140   37.4420   21.6070 C   0  0  0  0  0  0  0  0  0  0  0  0
   39.3150   40.1590   19.0340 C   0  0  0  0  0  0  0  0  0  0  0  0
   37.9980   36.5010   21.7490 O   0  0  0  0  0  0  0  0  0  0  0  0
   40.1020   39.3250   19.9530 O   0  0  0  0  0  0  0  0  0  0  0  0
   35.4860   38.3110   20.1680 C   0  0  0  0  0  0  0  0  0  0  0  0
   42.5610   39.7230   21.8020 O   0  0  0  0  0  0  0  0  0  0  0  0
   35.6630   37.4000   21.1440 C   0  0  0  0  0  0  0  0  0  0  0  0
   37.5780   38.8140   21.2330 C   0  0  0  0  0  0  0  0  0  0  0  0
   34.9170   36.2860   21.2860 O   0  0  0  0  0  0  0  0  0  0  0  0
   41.8240   38.6790   18.3350 N   0  0  0  0  0  0  0  0  0  0  0  0
   42.6200   39.7190   20.5090 C   0  0  0  0  0  0  0  0  0  0  0  0
   41.5510   39.3160   19.6410 C   0  0  0  0  0  0  0  0  0  0  0  0
   37.3510   39.4270   20.0230 O   0  0  0  0  0  0  0  0  0  0  0  0
  1 14  1  0
  2  4  1  0
  3  1  1  0
  3  5  1  0
  6  8  2  0
  8 10  1  0
  8  2  1  0
  9  2  1  0
 12  7  1  0
 13 11  1  0
 13  5  1  0
 13 12  1  0
 14  9  1  0
M  END
$$$$
