
     RDKit          3D

 17 19  0  0  0  0  0  0  0  0999 V2000
   39.1100   39.6960   23.4750 O   0  0  0  0  0  0  0  0  0  0  0  0
   40.0660   38.9770   23.2250 C   0  0  0  0  0  0  0  0  0  0  0  0
   38.9050   37.1720   23.9430 C   0  0  0  0  0  0  0  0  0  0  0  0
   41.3830   37.6710   24.7660 C   0  0  0  0  0  0  0  0  0  0  0  0
   40.1580   37.5590   23.5360 C   0  0  0  0  0  0  0  0  0  0  0  0
   40.2440   35.4240   25.2990 C   0  0  0  0  0  0  0  0  0  0  0  0
   42.3730   38.2840   24.9830 O   0  0  0  0  0  0  0  0  0  0  0  0
   41.1570   35.2040   28.9110 C   0  0  0  0  0  0  0  0  0  0  0  0
   40.0770   36.2850   28.8060 C   0  0  0  0  0  0  0  0  0  0  0  0
   41.0420   36.3840   25.1250 N   0  0  0  0  0  0  0  0  0  0  0  0
   41.0820   39.3980   22.7480 O   0  0  0  0  0  0  0  0  0  0  0  0
   38.8810   35.4920   24.4810 O   0  0  0  0  0  0  0  0  0  0  0  0
   39.9470   36.5750   27.3990 O   0  0  0  0  0  0  0  0  0  0  0  0
   40.1760   37.0700   29.5660 O   0  0  0  0  0  0  0  0  0  0  0  0
   39.9460   35.3960   26.7130 C   0  0  0  0  0  0  0  0  0  0  0  0
   40.5110   34.1540   28.4990 C   0  0  0  0  0  0  0  0  0  0  0  0
   40.9940   34.7330   27.5270 C   0  0  0  0  0  0  0  0  0  0  0  0
  2  1  1  0
  3 12  1  0
  4  7  2  0
  4 10  1  0
  5  2  1  0
  5  3  1  0
  5  4  1  0
  6 12  1  0
  6 15  1  0
  8 16  1  0
  9  8  1  0
  9 14  1  0
 10  6  1  0
 11  2  2  0
 13  9  1  0
 15 13  1  0
 15 17  1  0
 17 16  1  0
 17  8  1  0
M  END
$$$$

     RDKit          3D

 11 11  0  0  0  0  0  0  0  0999 V2000
   38.0760   37.1180   28.6960 O   0  0  0  0  0  0  0  0  0  0  0  0
   40.5290   33.5760   28.6090 N   0  0  0  0  0  0  0  0  0  0  0  0
   38.8860   36.5120   27.8040 C   0  0  0  0  0  0  0  0  0  0  0  0
   41.2090   37.9870   24.6990 S   0  0  0  0  0  0  0  0  0  0  0  0
   38.4780   35.6060   25.2710 O   0  0  0  0  0  0  0  0  0  0  0  0
   40.6440   38.2010   27.3920 O   0  0  0  0  0  0  0  0  0  0  0  0
   40.1890   35.9360   28.3050 N   0  0  0  0  0  0  0  0  0  0  0  0
   40.5270   36.3900   25.5900 S   0  0  0  0  0  0  0  0  0  0  0  0
   38.8140   36.4840   26.2350 C   0  0  0  0  0  0  0  0  0  0  0  0
   41.0090   36.8380   27.3300 C   0  0  0  0  0  0  0  0  0  0  0  0
   41.1070   34.9270   28.6330 C   0  0  0  0  0  0  0  0  0  0  0  0
  2 11  1  0
  3  7  1  0
  3  1  2  0
  7 11  1  0
  8  4  1  0
  8  9  1  0
  8 10  1  0
  9  5  1  0
  9  3  1  0
 10  6  1  0
 10  7  1  0
M  END
$$$$

     RDKit          3D

 19 20  0  0  0  0  0  0  0  0999 V2000
   41.2810   36.3070   24.9310 N   0  0  0  0  0  0  0  0  0  0  0  0
   36.3490   38.7910   23.3280 C   0  0  0  0  0  0  0  0  0  0  0  0
   37.6070   36.2820   23.8150 C   0  0  0  0  0  0  0  0  0  0  0  0
   40.5920   36.0740   27.2570 C   0  0  0  0  0  0  0  0  0  0  0  0
   38.5100   38.2220   24.3970 C   0  0  0  0  0  0  0  0  0  0  0  0
   38.3960   37.0010   24.6190 C   0  0  0  0  0  0  0  0  0  0  0  0
   38.5360   34.8520   25.7180 O   0  0  0  0  0  0  0  0  0  0  0  0
   39.6380   35.6480   27.9690 N   0  0  0  0  0  0  0  0  0  0  0  0
   41.7330   36.4000   27.8260 N   0  0  0  0  0  0  0  0  0  0  0  0
   37.5600   39.0990   23.8110 C   0  0  0  0  0  0  0  0  0  0  0  0
   35.3950   39.9850   23.0250 C   0  0  0  0  0  0  0  0  0  0  0  0
   39.1040   36.0350   25.5320 C   0  0  0  0  0  0  0  0  0  0  0  0
   40.4130   36.2010   25.9400 C   0  0  0  0  0  0  0  0  0  0  0  0
   43.3580   36.3510   25.9980 C   0  0  0  0  0  0  0  0  0  0  0  0
   35.8210   37.5730   23.0050 C   0  0  0  0  0  0  0  0  0  0  0  0
   36.3760   36.3650   23.2380 C   0  0  0  0  0  0  0  0  0  0  0  0
   42.9240   36.1010   27.3160 C   0  0  0  0  0  0  0  0  0  0  0  0
   42.5750   36.3900   24.8920 C   0  0  0  0  0  0  0  0  0  0  0  0
   43.2700   36.4310   23.6130 C   0  0  0  0  0  0  0  0  0  0  0  0
  1 13  1  0
  2 10  1  0
  3  6  1  0
  4  9  2  0
  4  8  1  0
  5  6  2  0
  6 12  1  0
 10  5  1  0
 11  2  1  0
 12  7  1  0
 13 12  1  0
 13  4  1  0
 14 17  2  0
 15 16  1  0
 15  2  2  0
 16  3  2  0
 17  9  1  0
 18  1  2  0
 18 14  1  0
 19 18  1  0
M  END
$$$$

     RDKit          3D

  7  6  0  0  0  0  0  0  0  0999 V2000
   41.3940   38.4850   25.2710 C   0  0  0  0  0  0  0  0  0  0  0  0
   39.9220   36.1270   27.4830 C   0  0  0  0  0  0  0  0  0  0  0  0
   40.6290   34.2500   28.9040 C   0  0  0  0  0  0  0  0  0  0  0  0
   40.0300   34.7520   27.6960 N   0  0  0  0  0  0  0  0  0  0  0  0
   40.1390   37.9920   25.9420 C   0  0  0  0  0  0  0  0  0  0  0  0
   40.2460   36.5210   26.0460 C   0  0  0  0  0  0  0  0  0  0  0  0
   42.2590   38.6980   26.4200 O   0  0  0  0  0  0  0  0  0  0  0  0
  1  5  1  0
  1  7  1  0
  2  4  1  0
  4  3  1  0
  5  6  1  0
  6  2  1  0
M  END
$$$$

     RDKit          3D

 14 13  0  0  0  0  0  0  0  0999 V2000
   38.4240   35.5530   24.2650 O   0  0  0  0  0  0  0  0  0  0  0  0
   40.6610   36.5560   26.9890 C   0  0  0  0  0  0  0  0  0  0  0  0
   41.2550   35.4120   27.8200 C   0  0  0  0  0  0  0  0  0  0  0  0
   37.6630   38.9100   22.9690 C   0  0  0  0  0  0  0  0  0  0  0  0
   39.3270   37.8060   24.3920 C   0  0  0  0  0  0  0  0  0  0  0  0
   40.1800   34.6470   28.5910 C   0  0  0  0  0  0  0  0  0  0  0  0
   38.8640   37.9950   22.9580 C   0  0  0  0  0  0  0  0  0  0  0  0
   38.1670   40.2310   22.4350 C   0  0  0  0  0  0  0  0  0  0  0  0
   39.5920   35.9580   26.1930 N   0  0  0  0  0  0  0  0  0  0  0  0
   42.8270   37.5190   27.0150 C   0  0  0  0  0  0  0  0  0  0  0  0
   41.5140   38.0960   25.2800 O   0  0  0  0  0  0  0  0  0  0  0  0
   39.5210   36.3140   24.7540 C   0  0  0  0  0  0  0  0  0  0  0  0
   37.4710   40.3230   21.1040 C   0  0  0  0  0  0  0  0  0  0  0  0
   41.6830   37.4360   26.2980 C   0  0  0  0  0  0  0  0  0  0  0  0
  2  3  1  0
  3  6  1  0
  5 12  1  0
  7  4  1  0
  7  5  1  0
  8  4  1  0
  9  2  1  0
 11 14  2  0
 12  1  1  0
 12  9  1  0
 13  8  1  0
 14  2  1  0
 14 10  1  0
M  END
$$$$

     RDKit          3D

 10  9  0  0  0  0  0  0  0  0999 V2000
   39.8410   37.4970   25.2990 C   0  0  0  0  0  0  0  0  0  0  0  0
   40.0850   34.9210   28.4490 C   0  0  0  0  0  0  0  0  0  0  0  0
   41.7560   36.8280   25.3200 C   0  0  0  0  0  0  0  0  0  0  0  0
   39.0950   35.3080   25.6890 O   0  0  0  0  0  0  0  0  0  0  0  0
   40.7200   36.9920   24.1710 C   0  0  0  0  0  0  0  0  0  0  0  0
   39.6370   36.3580   26.4520 C   0  0  0  0  0  0  0  0  0  0  0  0
   42.0930   37.9230   26.0150 O   0  0  0  0  0  0  0  0  0  0  0  0
   41.8280   35.7460   27.3800 O   0  0  0  0  0  0  0  0  0  0  0  0
   40.7850   35.7430   27.3740 C   0  0  0  0  0  0  0  0  0  0  0  0
   38.2700   37.8460   24.4570 Cl  0  0  0  0  0  0  0  0  0  0  0  0
  1 10  1  0
  1  6  1  0
  3  7  1  0
  5  1  1  0
  5  3  1  0
  6  4  1  0
  6  9  1  0
  9  8  2  0
  9  2  1  0
M  END
$$$$

     RDKit          3D

 20 22  0  0  0  0  0  0  0  0999 V2000
   42.7820   35.2490   26.1690 N   0  0  0  0  0  0  0  0  0  0  0  0
   43.8800   35.9470   25.4640 C   0  0  0  0  0  0  0  0  0  0  0  0
   45.1750   36.0940   23.2040 C   0  0  0  0  0  0  0  0  0  0  0  0
   41.7840   35.9930   26.2130 C   0  0  0  0  0  0  0  0  0  0  0  0
   37.4780   38.4600   23.6500 C   0  0  0  0  0  0  0  0  0  0  0  0
   37.8370   36.0700   23.9260 C   0  0  0  0  0  0  0  0  0  0  0  0
   43.0980   36.7820   24.3980 C   0  0  0  0  0  0  0  0  0  0  0  0
   38.8880   37.3370   25.5320 N   0  0  0  0  0  0  0  0  0  0  0  0
   41.6150   36.6570   24.8150 C   0  0  0  0  0  0  0  0  0  0  0  0
   40.8910   36.2870   27.3840 C   0  0  0  0  0  0  0  0  0  0  0  0
   43.6960   36.3140   23.0590 C   0  0  0  0  0  0  0  0  0  0  0  0
   38.0680   37.3790   24.3290 C   0  0  0  0  0  0  0  0  0  0  0  0
   36.9060   35.7940   22.8750 C   0  0  0  0  0  0  0  0  0  0  0  0
   39.0580   36.0740   25.8240 C   0  0  0  0  0  0  0  0  0  0  0  0
   36.2100   36.8780   22.3040 C   0  0  0  0  0  0  0  0  0  0  0  0
   42.5980   35.2020   22.0280 Cl  0  0  0  0  0  0  0  0  0  0  0  0
   39.6140   35.7070   27.0180 N   0  0  0  0  0  0  0  0  0  0  0  0
   38.6030   35.2770   24.7990 N   0  0  0  0  0  0  0  0  0  0  0  0
   40.7640   36.7680   23.6390 O   0  0  0  0  0  0  0  0  0  0  0  0
   36.5090   38.2000   22.6560 C   0  0  0  0  0  0  0  0  0  0  0  0
  1  4  1  0
  2  1  1  0
  4 10  1  0
  5 12  1  0
  6 12  2  0
  6 18  1  0
  7 11  1  0
  7  9  1  0
  7  2  1  0
  8 14  2  0
  9 19  1  0
  9  4  1  0
 11  3  1  0
 12  8  1  0
 13  6  1  0
 14 17  1  0
 15 20  1  0
 15 13  2  0
 16 11  1  0
 17 10  1  0
 18 14  2  0
 20  5  2  0
M  END
$$$$

     RDKit          3D

 16 18  0  0  0  0  0  0  0  0999 V2000
   38.4200   40.1580   22.8450 C   0  0  0  0  0  0  0  0  0  0  0  0
   38.5730   39.6920   21.4790 C   0  0  0  0  0  0  0  0  0  0  0  0
   39.2920   39.0370   22.5720 N   0  0  0  0  0  0  0  0  0  0  0  0
   41.3670   37.7070   23.2050 C   0  0  0  0  0  0  0  0  0  0  0  0
   42.4480   36.4410   27.0470 O   0  0  0  0  0  0  0  0  0  0  0  0
   39.1330   35.1250   24.5190 O   0  0  0  0  0  0  0  0  0  0  0  0
   41.5010   35.6250   26.4080 C   0  0  0  0  0  0  0  0  0  0  0  0
   41.9840   36.7840   24.1090 C   0  0  0  0  0  0  0  0  0  0  0  0
   39.7170   37.7430   23.0590 C   0  0  0  0  0  0  0  0  0  0  0  0
   40.2420   35.4820   27.1980 C   0  0  0  0  0  0  0  0  0  0  0  0
   39.2950   36.2020   26.5070 O   0  0  0  0  0  0  0  0  0  0  0  0
   39.2490   36.6880   22.2560 O   0  0  0  0  0  0  0  0  0  0  0  0
   41.1830   36.2670   25.0920 C   0  0  0  0  0  0  0  0  0  0  0  0
   40.1260   34.8020   28.5060 C   0  0  0  0  0  0  0  0  0  0  0  0
   39.2370   37.3390   24.3300 C   0  0  0  0  0  0  0  0  0  0  0  0
   39.7080   36.2390   25.1360 C   0  0  0  0  0  0  0  0  0  0  0  0
  2  3  1  0
  2  1  1  0
  3  1  1  0
  3  9  1  0
  4  8  1  0
  7  5  1  0
  7 10  1  0
  9 12  1  0
  9  4  1  0
  9 15  1  0
 10 14  1  0
 11 10  1  0
 13  8  1  0
 13 16  1  0
 13  7  1  0
 15 16  1  0
 16  6  1  0
 16 11  1  0
M  END
$$$$

     RDKit          3D

 13 14  0  0  0  0  0  0  0  0999 V2000
   42.4740   37.6050   26.0150 C   0  0  0  0  0  0  0  0  0  0  0  0
   41.3000   37.3960   26.9040 C   0  0  0  0  0  0  0  0  0  0  0  0
   41.9770   38.9300   23.5570 B   0  0  0  0  0  0  0  0  0  0  0  0
   41.4960   36.1310   27.5120 N   0  0  0  0  0  0  0  0  0  0  0  0
   43.5740   39.5200   23.9370 O   0  0  0  0  0  0  0  0  0  0  0  0
   41.9250   38.4760   24.9090 C   0  0  0  0  0  0  0  0  0  0  0  0
   39.4270   35.2230   26.7980 N   0  0  0  0  0  0  0  0  0  0  0  0
   40.5140   38.0130   24.8000 N   0  0  0  0  0  0  0  0  0  0  0  0
   40.1040   37.3440   26.0430 C   0  0  0  0  0  0  0  0  0  0  0  0
   40.2090   35.5540   27.9370 C   0  0  0  0  0  0  0  0  0  0  0  0
   42.0100   38.5960   22.3910 O   0  0  0  0  0  0  0  0  0  0  0  0
   39.4140   36.0850   25.6340 C   0  0  0  0  0  0  0  0  0  0  0  0
   40.3810   34.3170   28.7530 C   0  0  0  0  0  0  0  0  0  0  0  0
  2  1  1  0
  2  4  1  0
  3  5  1  0
  4 10  1  0
  6  3  1  0
  6  1  1  0
  7 10  1  0
  8  6  1  0
  8  9  1  0
  9 12  1  0
  9  2  1  0
 10 13  1  0
 11  3  1  0
 12  7  1  0
M  END
$$$$

     RDKit          3D

 17 18  0  0  0  0  0  0  0  0999 V2000
   41.0800   37.5870   24.3840 C   0  0  0  0  0  0  0  0  0  0  0  0
   37.2260   38.8670   23.2880 O   0  0  0  0  0  0  0  0  0  0  0  0
   38.5710   35.2100   25.0530 O   0  0  0  0  0  0  0  0  0  0  0  0
   42.7440   37.6850   26.3380 C   0  0  0  0  0  0  0  0  0  0  0  0
   39.1680   37.5550   22.5660 C   0  0  0  0  0  0  0  0  0  0  0  0
   39.6060   35.9280   27.5920 C   0  0  0  0  0  0  0  0  0  0  0  0
   39.0300   36.2550   24.6550 C   0  0  0  0  0  0  0  0  0  0  0  0
   40.4840   35.1700   28.6030 C   0  0  0  0  0  0  0  0  0  0  0  0
   40.4650   38.2390   23.1510 C   0  0  0  0  0  0  0  0  0  0  0  0
   38.7360   36.4800   23.4270 O   0  0  0  0  0  0  0  0  0  0  0  0
   40.4900   36.6410   26.5870 N   0  0  0  0  0  0  0  0  0  0  0  0
   36.1380   39.7570   22.9470 C   0  0  0  0  0  0  0  0  0  0  0  0
   43.2760   38.9640   27.4850 S   0  0  0  0  0  0  0  0  0  0  0  0
   42.1210   38.4090   25.1410 C   0  0  0  0  0  0  0  0  0  0  0  0
   41.7760   36.9110   27.2360 C   0  0  0  0  0  0  0  0  0  0  0  0
   39.9230   37.2620   25.3730 C   0  0  0  0  0  0  0  0  0  0  0  0
   38.0200   38.5090   22.1500 C   0  0  0  0  0  0  0  0  0  0  0  0
  1  9  1  0
  1 14  1  0
  1 16  1  0
  4 15  1  0
  4 13  1  0
  5 17  1  0
  5  9  1  0
  5 10  1  0
  6  8  1  0
  7  3  2  0
 10  7  1  0
 11 15  1  0
 11  6  1  0
 12  2  1  0
 14  4  1  0
 16  7  1  0
 16 11  1  0
 17  2  1  0
M  END
$$$$

     RDKit          3D

 16 16  0  0  0  0  0  0  0  0999 V2000
   42.8860   36.0070   25.2230 C   0  0  0  0  0  0  0  0  0  0  0  0
   40.2100   36.2860   27.2220 C   0  0  0  0  0  0  0  0  0  0  0  0
   38.8170   36.2950   22.0500 O   0  0  0  0  0  0  0  0  0  0  0  0
   40.0210   35.9660   25.7450 N   0  0  0  0  0  0  0  0  0  0  0  0
   41.6690   37.4270   25.3440 C   0  0  0  0  0  0  0  0  0  0  0  0
   41.2330   37.1040   27.7070 N   0  0  0  0  0  0  0  0  0  0  0  0
   38.9350   35.3590   25.3450 N   0  0  0  0  0  0  0  0  0  0  0  0
   43.5010   37.4190   27.0110 O   0  0  0  0  0  0  0  0  0  0  0  0
   38.4960   35.8700   24.1650 C   0  0  0  0  0  0  0  0  0  0  0  0
   43.4130   36.3370   23.8980 O   0  0  0  0  0  0  0  0  0  0  0  0
   39.4990   37.1630   22.6710 C   0  0  0  0  0  0  0  0  0  0  0  0
   42.1990   37.2820   26.6560 C   0  0  0  0  0  0  0  0  0  0  0  0
   38.9460   37.4590   24.0450 C   0  0  0  0  0  0  0  0  0  0  0  0
   37.8900   38.5960   23.8920 C   0  0  0  0  0  0  0  0  0  0  0  0
   40.1950   38.0940   24.9650 C   0  0  0  0  0  0  0  0  0  0  0  0
   40.1250   35.0250   28.1430 C   0  0  0  0  0  0  0  0  0  0  0  0
  2  6  1  0
  2 16  1  0
  3 11  1  0
  4  2  1  0
  5  1  1  0
  5 12  1  0
  7  4  1  0
  9  7  1  0
 10  1  1  0
 11 13  1  0
 12  8  2  0
 12  6  1  0
 13 14  1  0
 13  9  1  0
 13 15  1  0
 15  5  1  0
M  END
$$$$

     RDKit          3D

 12 12  0  0  0  0  0  0  0  0999 V2000
   39.8400   37.5750   24.8010 C   0  0  0  0  0  0  0  0  0  0  0  0
   41.1000   36.9580   25.2080 C   0  0  0  0  0  0  0  0  0  0  0  0
   40.8170   37.0620   26.6270 C   0  0  0  0  0  0  0  0  0  0  0  0
   42.2710   37.5610   24.5740 C   0  0  0  0  0  0  0  0  0  0  0  0
   39.6580   34.9140   26.9430 O   0  0  0  0  0  0  0  0  0  0  0  0
   38.8520   36.6410   25.3220 C   0  0  0  0  0  0  0  0  0  0  0  0
   38.6820   35.5040   24.4980 O   0  0  0  0  0  0  0  0  0  0  0  0
   43.3600   37.4970   25.4890 O   0  0  0  0  0  0  0  0  0  0  0  0
   41.8650   36.5890   27.4300 O   0  0  0  0  0  0  0  0  0  0  0  0
   39.7830   38.7700   24.5090 O   0  0  0  0  0  0  0  0  0  0  0  0
   39.5070   36.3020   26.6550 C   0  0  0  0  0  0  0  0  0  0  0  0
   40.2620   34.6760   28.2160 C   0  0  0  0  0  0  0  0  0  0  0  0
  1  2  1  0
  1  6  1  0
  2  4  1  0
  2  3  1  0
  3 11  1  0
  3  9  1  0
  4  8  1  0
  5 12  1  0
  6  7  1  0
  6 11  1  0
 10  1  2  0
 11  5  1  0
M  END
$$$$

     RDKit          3D

 10  9  0  0  0  0  0  0  0  0999 V2000
   38.2990   35.8760   24.0990 S   0  0  0  0  0  0  0  0  0  0  0  0
   37.8450   38.4990   22.7380 C   0  0  0  0  0  0  0  0  0  0  0  0
   39.0700   38.5100   23.6930 C   0  0  0  0  0  0  0  0  0  0  0  0
   39.8030   36.1940   26.7120 C   0  0  0  0  0  0  0  0  0  0  0  0
   39.7600   37.3440   25.8820 C   0  0  0  0  0  0  0  0  0  0  0  0
   40.6360   36.0880   27.9720 C   0  0  0  0  0  0  0  0  0  0  0  0
   40.2510   38.4260   22.8600 N   0  0  0  0  0  0  0  0  0  0  0  0
   39.0950   35.2360   26.4500 O   0  0  0  0  0  0  0  0  0  0  0  0
   40.3000   34.9160   28.8080 C   0  0  0  0  0  0  0  0  0  0  0  0
   39.1240   37.3580   24.6410 C   0  0  0  0  0  0  0  0  0  0  0  0
  1 10  1  0
  3  2  1  0
  3 10  1  0
  4  6  1  0
  5  4  1  0
  6  9  1  0
  7  3  1  0
  8  4  2  0
 10  5  2  3
M  END
$$$$

     RDKit          3D

 12 12  0  0  0  0  0  0  0  0999 V2000
   40.1550   36.6170   26.1030 C   0  0  0  0  0  0  0  0  0  0  0  0
   43.2230   37.3410   25.1110 N   0  0  0  0  0  0  0  0  0  0  0  0
   41.8430   37.0790   27.7780 O   0  0  0  0  0  0  0  0  0  0  0  0
   44.4310   37.5910   24.3020 C   0  0  0  0  0  0  0  0  0  0  0  0
   39.5300   38.1380   24.6980 C   0  0  0  0  0  0  0  0  0  0  0  0
   38.4310   37.0850   24.6340 C   0  0  0  0  0  0  0  0  0  0  0  0
   42.1040   38.0900   24.9230 C   0  0  0  0  0  0  0  0  0  0  0  0
   39.0100   35.8960   25.5610 C   0  0  0  0  0  0  0  0  0  0  0  0
   40.7980   37.3140   24.9330 C   0  0  0  0  0  0  0  0  0  0  0  0
   41.0460   36.0010   27.1410 N   0  0  0  0  0  0  0  0  0  0  0  0
   42.0120   39.2380   24.4750 O   0  0  0  0  0  0  0  0  0  0  0  0
   40.1670   35.2130   28.0080 C   0  0  0  0  0  0  0  0  0  0  0  0
  1 10  1  0
  4  2  1  0
  5  9  1  0
  6  5  1  0
  6  8  1  0
  7  2  1  0
  8  1  1  0
  9  7  1  0
  9  1  1  0
 10  3  1  0
 10 12  1  0
 11  7  2  0
M  END
$$$$

     RDKit          3D

 11 11  0  0  0  0  0  0  0  0999 V2000
   39.9640   34.9910   27.2210 C   0  0  0  0  0  0  0  0  0  0  0  0
   39.7870   37.8710   24.0590 O   0  0  0  0  0  0  0  0  0  0  0  0
   37.7680   37.1630   23.7270 C   0  0  0  0  0  0  0  0  0  0  0  0
   41.3630   37.6320   27.0640 O   0  0  0  0  0  0  0  0  0  0  0  0
   38.7460   37.0030   24.3670 C   0  0  0  0  0  0  0  0  0  0  0  0
   40.7890   34.9020   28.1660 C   0  0  0  0  0  0  0  0  0  0  0  0
   40.8590   37.8550   24.8480 C   0  0  0  0  0  0  0  0  0  0  0  0
   42.0700   38.6020   24.4780 C   0  0  0  0  0  0  0  0  0  0  0  0
   39.9280   35.9610   26.2290 C   0  0  0  0  0  0  0  0  0  0  0  0
   40.7230   37.1130   26.1150 C   0  0  0  0  0  0  0  0  0  0  0  0
   39.0040   35.8240   25.2420 O   0  0  0  0  0  0  0  0  0  0  0  0
  1  6  2  0
  2  5  1  0
  2  7  1  0
  3  5  2  0
  5 11  1  0
  7  8  1  0
  7 10  1  0
  9  1  1  0
 10  9  1  0
 10  4  2  0
 11  9  1  0
M  END
$$$$

     RDKit          3D

 16 16  0  0  0  0  0  0  0  0999 V2000
   39.2680   37.4080   25.4750 C   0  0  0  0  0  0  0  0  0  0  0  0
   40.5910   35.8110   27.5230 C   0  0  0  0  0  0  0  0  0  0  0  0
   41.8400   36.8190   25.2390 C   0  0  0  0  0  0  0  0  0  0  0  0
   38.5430   35.2290   24.6540 O   0  0  0  0  0  0  0  0  0  0  0  0
   39.5550   35.3040   26.5780 N   0  0  0  0  0  0  0  0  0  0  0  0
   40.6280   39.8690   21.6140 C   0  0  0  0  0  0  0  0  0  0  0  0
   39.0580   35.9330   25.4840 C   0  0  0  0  0  0  0  0  0  0  0  0
   43.0230   36.8220   25.8910 O   0  0  0  0  0  0  0  0  0  0  0  0
   38.8160   38.0790   24.2530 C   0  0  0  0  0  0  0  0  0  0  0  0
   40.8440   37.2420   27.4370 C   0  0  0  0  0  0  0  0  0  0  0  0
   37.3420   38.8400   22.9510 S   0  0  0  0  0  0  0  0  0  0  0  0
   38.5720   40.0240   22.4910 C   0  0  0  0  0  0  0  0  0  0  0  0
   39.8930   38.3880   23.6140 O   0  0  0  0  0  0  0  0  0  0  0  0
   39.2600   39.2400   21.3930 C   0  0  0  0  0  0  0  0  0  0  0  0
   40.7370   37.6530   25.9710 C   0  0  0  0  0  0  0  0  0  0  0  0
   40.6160   34.9120   28.5440 C   0  0  0  0  0  0  0  0  0  0  0  0
  1  9  1  0
  1  7  1  0
  1 15  1  0
  2 16  2  0
  3  8  1  0
  4  7  2  0
  5  2  1  0
  7  5  1  0
 10  2  1  0
 11  9  1  0
 12 11  1  0
 13  9  2  0
 14  6  1  0
 14 12  1  0
 15  3  1  0
 15 10  1  0
M  END
$$$$

     RDKit          3D

 12 11  0  0  0  0  0  0  0  0999 V2000
   43.2970   36.9570   25.7560 O   0  0  0  0  0  0  0  0  0  0  0  0
   40.6640   35.2740   27.2410 C   0  0  0  0  0  0  0  0  0  0  0  0
   38.1800   37.4950   24.3400 O   0  0  0  0  0  0  0  0  0  0  0  0
   43.0420   36.2860   28.2100 O   0  0  0  0  0  0  0  0  0  0  0  0
   40.4070   35.0000   28.6930 C   0  0  0  0  0  0  0  0  0  0  0  0
   39.1280   36.5790   24.8560 C   0  0  0  0  0  0  0  0  0  0  0  0
   39.6040   34.7340   26.5790 O   0  0  0  0  0  0  0  0  0  0  0  0
   41.0200   37.9000   24.5520 O   0  0  0  0  0  0  0  0  0  0  0  0
   42.3810   38.6560   27.5700 O   0  0  0  0  0  0  0  0  0  0  0  0
   42.4930   37.2210   27.0980 P   0  0  0  0  0  0  0  0  0  0  0  0
   40.1720   37.4080   25.5970 C   0  0  0  0  0  0  0  0  0  0  0  0
   40.6960   36.7280   26.8450 C   0  0  0  0  0  0  0  0  0  0  0  0
  1 10  2  0
  2  5  1  0
  3  6  1  0
  6 11  1  0
  7  2  1  0
 10  9  1  0
 10  4  1  0
 11  8  1  0
 11 12  1  0
 12 10  1  0
 12  2  1  0
M  END
$$$$

     RDKit          3D

 17 19  0  0  0  0  0  0  0  0999 V2000
   35.3880   36.0760   21.7780 C   0  0  0  0  0  0  0  0  0  0  0  0
   41.1840   36.0960   27.4830 C   0  0  0  0  0  0  0  0  0  0  0  0
   42.3890   37.5510   24.8060 Cl  0  0  0  0  0  0  0  0  0  0  0  0
   35.9840   36.4930   20.4920 N   0  0  0  0  0  0  0  0  0  0  0  0
   38.5670   36.6130   24.4480 C   0  0  0  0  0  0  0  0  0  0  0  0
   38.8620   38.8840   23.6470 N   0  0  0  0  0  0  0  0  0  0  0  0
   38.1410   37.7100   23.7070 C   0  0  0  0  0  0  0  0  0  0  0  0
   36.4850   36.2980   22.8080 C   0  0  0  0  0  0  0  0  0  0  0  0
   36.9330   35.2140   23.5620 C   0  0  0  0  0  0  0  0  0  0  0  0
   37.0870   37.5230   22.9300 N   0  0  0  0  0  0  0  0  0  0  0  0
   40.4010   35.8200   26.3550 N   0  0  0  0  0  0  0  0  0  0  0  0
   40.6630   37.7490   24.7690 C   0  0  0  0  0  0  0  0  0  0  0  0
   40.2200   38.9050   24.2910 C   0  0  0  0  0  0  0  0  0  0  0  0
   40.2450   34.4940   29.3230 Br  0  0  0  0  0  0  0  0  0  0  0  0
   39.8710   36.8220   25.4680 C   0  0  0  0  0  0  0  0  0  0  0  0
   37.9820   35.4190   24.4220 N   0  0  0  0  0  0  0  0  0  0  0  0
   39.8520   35.3310   27.6270 C   0  0  0  0  0  0  0  0  0  0  0  0
  1  8  1  0
  2 17  1  0
  4  1  1  0
  6  7  2  0
  6 13  1  0
  7  5  1  0
  8 10  2  0
  8  9  1  0
  9 16  1  0
 10  7  1  0
 11  2  1  0
 11 17  1  0
 12  3  1  0
 12 15  1  0
 13 12  1  0
 15  5  1  0
 15 11  1  0
 16  5  2  0
 17 14  1  0
M  END
$$$$

     RDKit          3D

 13 12  0  0  0  0  0  0  0  0999 V2000
   39.3950   35.9730   26.6700 C   0  0  0  0  0  0  0  0  0  0  0  0
   36.6170   36.2330   27.0860 C   0  0  0  0  0  0  0  0  0  0  0  0
   35.6170   36.5090   27.6800 C   0  0  0  0  0  0  0  0  0  0  0  0
   36.6300   37.2690   25.0490 N   0  0  0  0  0  0  0  0  0  0  0  0
   37.7740   37.6040   24.9910 C   0  0  0  0  0  0  0  0  0  0  0  0
   36.1960   38.3260   23.2730 O   0  0  0  0  0  0  0  0  0  0  0  0
   37.4190   38.6320   23.6880 C   0  0  0  0  0  0  0  0  0  0  0  0
   39.7480   34.6940   26.7820 O   0  0  0  0  0  0  0  0  0  0  0  0
   34.3260   36.2630   28.0570 O   0  0  0  0  0  0  0  0  0  0  0  0
   37.8520   35.9230   26.6210 C   0  0  0  0  0  0  0  0  0  0  0  0
   37.8960   39.5140   23.7250 O   0  0  0  0  0  0  0  0  0  0  0  0
   39.8010   36.8150   26.1950 C   0  0  0  0  0  0  0  0  0  0  0  0
   39.2620   37.2710   24.8350 C   0  0  0  0  0  0  0  0  0  0  0  0
  1  8  1  0
  2  3  2  0
  3  9  1  0
  5  4  2  0
  6  7  2  0
  7 11  1  0
  7  5  1  0
 10  1  1  0
 10  2  2  0
 12  1  1  0
 13  5  1  0
 13 12  1  0
M  END
$$$$

     RDKit          3D

  9  9  0  0  0  0  0  0  0  0999 V2000
   40.0050   34.4300   28.6460 C   0  0  0  0  0  0  0  0  0  0  0  0
   40.7230   38.5500   26.6760 O   0  0  0  0  0  0  0  0  0  0  0  0
   40.4850   35.8360   28.1020 C   0  0  0  0  0  0  0  0  0  0  0  0
   38.8170   37.3870   24.8010 C   0  0  0  0  0  0  0  0  0  0  0  0
   40.1590   35.7020   26.6620 C   0  0  0  0  0  0  0  0  0  0  0  0
   40.2480   37.3100   25.8360 S   0  0  0  0  0  0  0  0  0  0  0  0
   41.4840   35.4470   27.1000 N   0  0  0  0  0  0  0  0  0  0  0  0
   41.4310   37.0400   24.8730 O   0  0  0  0  0  0  0  0  0  0  0  0
   38.8030   35.9750   24.1180 O   0  0  0  0  0  0  0  0  0  0  0  0
  3  1  1  0
  4  6  1  0
  5  6  1  0
  5  7  1  0
  5  3  1  0
  6  2  2  0
  7  3  1  0
  8  6  2  0
  9  4  1  0
M  END
$$$$
