
     RDKit          3D

 10  9  0  0  0  0  0  0  0  0999 V2000
   44.8160   35.2800   24.3440 C   0  0  0  0  0  0  0  0  0  0  0  0
   41.6590   36.5520   26.3660 C   0  0  0  0  0  0  0  0  0  0  0  0
   43.3110   35.5940   24.4640 C   0  0  0  0  0  0  0  0  0  0  0  0
   40.8610   34.5080   28.2230 C   0  0  0  0  0  0  0  0  0  0  0  0
   40.5410   36.1070   23.9370 C   0  0  0  0  0  0  0  0  0  0  0  0
   41.4620   35.2570   27.0420 N   0  0  0  0  0  0  0  0  0  0  0  0
   42.6570   38.0650   24.5620 O   0  0  0  0  0  0  0  0  0  0  0  0
   39.3480   35.9750   26.2700 C   0  0  0  0  0  0  0  0  0  0  0  0
   40.3290   36.4570   25.3970 C   0  0  0  0  0  0  0  0  0  0  0  0
   42.6780   36.8490   24.9590 S   0  0  0  0  0  0  0  0  0  0  0  0
  1  3  1  0
  2  9  1  0
  2  6  1  0
  3 10  1  0
  5  9  1  0
  6  4  1  0
  9  8  1  0
 10  7  2  0
 10  2  1  0
M  END
$$$$

     RDKit          3D

 16 16  0  0  0  0  0  0  0  0999 V2000
   39.8800   36.2570   27.1050 C   0  0  0  0  0  0  0  0  0  0  0  0
   41.9030   37.1230   26.1490 C   0  0  0  0  0  0  0  0  0  0  0  0
   40.1390   34.5920   28.4760 C   0  0  0  0  0  0  0  0  0  0  0  0
   42.0920   36.8460   23.5500 C   0  0  0  0  0  0  0  0  0  0  0  0
   38.8260   34.8330   23.3740 O   0  0  0  0  0  0  0  0  0  0  0  0
   41.2050   34.7300   24.0010 O   0  0  0  0  0  0  0  0  0  0  0  0
   39.4450   37.5830   22.8060 C   0  0  0  0  0  0  0  0  0  0  0  0
   40.9350   35.6520   27.7440 N   0  0  0  0  0  0  0  0  0  0  0  0
   43.2390   35.0420   25.7110 C   0  0  0  0  0  0  0  0  0  0  0  0
   42.7700   37.4650   22.9060 C   0  0  0  0  0  0  0  0  0  0  0  0
   40.1270   36.5810   24.6920 N   0  0  0  0  0  0  0  0  0  0  0  0
   37.3970   36.2970   23.6390 O   0  0  0  0  0  0  0  0  0  0  0  0
   42.1880   35.7770   26.6940 C   0  0  0  0  0  0  0  0  0  0  0  0
   40.4070   37.1630   25.9550 C   0  0  0  0  0  0  0  0  0  0  0  0
   41.1930   35.9740   24.1010 C   0  0  0  0  0  0  0  0  0  0  0  0
   38.8200   36.2480   23.5670 S   0  0  0  0  0  0  0  0  0  0  0  0
  1  8  1  0
  2 13  1  0
  4 15  1  0
  5 16  2  0
  6 15  2  0
  7 16  1  0
  8  3  1  0
 10  4  3  0
 13  9  1  0
 13  8  1  0
 14 11  1  0
 14  2  1  0
 14  1  1  0
 15 11  1  0
 16 12  2  0
 16 11  1  0
M  END
$$$$

     RDKit          3D

 10 10  0  0  0  0  0  0  0  0999 V2000
   40.1630   36.1030   26.0110 O   0  0  0  0  0  0  0  0  0  0  0  0
   41.1780   35.0120   22.6950 C   0  0  0  0  0  0  0  0  0  0  0  0
   39.9130   36.8370   23.7230 C   0  0  0  0  0  0  0  0  0  0  0  0
   40.9970   36.0190   23.7560 N   0  0  0  0  0  0  0  0  0  0  0  0
   42.1280   36.2910   24.6360 C   0  0  0  0  0  0  0  0  0  0  0  0
   41.4170   36.3600   26.1790 C   0  0  0  0  0  0  0  0  0  0  0  0
   40.3430   36.6790   27.2690 C   0  0  0  0  0  0  0  0  0  0  0  0
   39.9040   37.9780   24.2060 O   0  0  0  0  0  0  0  0  0  0  0  0
   38.8580   36.5240   23.0250 O   0  0  0  0  0  0  0  0  0  0  0  0
   43.0130   35.2790   24.8070 O   0  0  0  0  0  0  0  0  0  0  0  0
  1  6  1  0
  1  7  1  0
  2  4  1  0
  3  4  1  0
  3  8  1  0
  4  5  1  0
  5 10  1  0
  6  5  1  0
  6  7  1  0
  9  3  2  0
M  END
$$$$

     RDKit          3D

 10 10  0  0  0  0  0  0  0  0999 V2000
   41.7350   36.6190   25.5780 C   0  0  0  0  0  0  0  0  0  0  0  0
   40.7630   35.8870   26.3740 N   0  0  0  0  0  0  0  0  0  0  0  0
   40.4260   36.0080   24.9290 C   0  0  0  0  0  0  0  0  0  0  0  0
   39.3750   34.5580   23.1660 C   0  0  0  0  0  0  0  0  0  0  0  0
   41.7220   34.7450   23.0850 C   0  0  0  0  0  0  0  0  0  0  0  0
   39.1790   36.8890   24.7010 C   0  0  0  0  0  0  0  0  0  0  0  0
   39.7140   35.4910   27.3860 C   0  0  0  0  0  0  0  0  0  0  0  0
   41.6870   38.1700   25.7010 C   0  0  0  0  0  0  0  0  0  0  0  0
   40.5600   34.8410   23.9930 N   0  0  0  0  0  0  0  0  0  0  0  0
   43.1450   36.1820   25.0730 C   0  0  0  0  0  0  0  0  0  0  0  0
  1  8  1  0
  1  2  1  0
  2  7  1  0
  3  6  1  0
  3  1  1  0
  3  2  1  0
  4  9  1  0
  5  9  1  0
  9  3  1  0
 10  1  1  0
M  END
$$$$

     RDKit          3D

  7  7  0  0  0  0  0  0  0  0999 V2000
   42.0460   35.3800   26.6380 N   0  0  0  0  0  0  0  0  0  0  0  0
   42.4220   36.3120   25.5920 C   0  0  0  0  0  0  0  0  0  0  0  0
   41.5310   37.7780   26.2430 S   0  0  0  0  0  0  0  0  0  0  0  0
   43.9030   36.6430   25.5690 C   0  0  0  0  0  0  0  0  0  0  0  0
   40.6340   35.4120   26.6310 C   0  0  0  0  0  0  0  0  0  0  0  0
   40.3440   34.8300   27.8930 C   0  0  0  0  0  0  0  0  0  0  0  0
   40.2170   36.8480   27.0350 C   0  0  0  0  0  0  0  0  0  0  0  0
  2  4  1  0
  2  3  1  0
  2  1  1  0
  3  7  1  0
  5  1  1  0
  5  7  1  0
  5  6  1  0
M  END
$$$$

     RDKit          3D

 19 21  0  0  0  0  0  0  0  0999 V2000
   43.1720   37.0710   27.5090 N   0  0  0  0  0  0  0  0  0  0  0  0
   38.1550   37.2030   22.4580 C   0  0  0  0  0  0  0  0  0  0  0  0
   38.6560   33.9690   23.6740 O   0  0  0  0  0  0  0  0  0  0  0  0
   38.8940   36.3480   21.2450 C   0  0  0  0  0  0  0  0  0  0  0  0
   40.0960   35.0240   27.3830 C   0  0  0  0  0  0  0  0  0  0  0  0
   38.5490   34.9210   21.5430 O   0  0  0  0  0  0  0  0  0  0  0  0
   43.8220   36.6990   28.6910 N   0  0  0  0  0  0  0  0  0  0  0  0
   36.7430   36.8230   20.5550 C   0  0  0  0  0  0  0  0  0  0  0  0
   36.7310   36.9250   22.1200 C   0  0  0  0  0  0  0  0  0  0  0  0
   40.4090   36.2830   25.3160 C   0  0  0  0  0  0  0  0  0  0  0  0
   40.7100   37.5390   23.3970 O   0  0  0  0  0  0  0  0  0  0  0  0
   41.3080   35.5060   27.8690 C   0  0  0  0  0  0  0  0  0  0  0  0
   38.2110   36.7880   19.9900 C   0  0  0  0  0  0  0  0  0  0  0  0
   40.0470   36.5830   23.9620 C   0  0  0  0  0  0  0  0  0  0  0  0
   38.6170   34.8890   22.9130 C   0  0  0  0  0  0  0  0  0  0  0  0
   42.0660   36.3990   27.0850 C   0  0  0  0  0  0  0  0  0  0  0  0
   39.6480   35.4700   26.0640 C   0  0  0  0  0  0  0  0  0  0  0  0
   41.5980   36.7680   25.7680 C   0  0  0  0  0  0  0  0  0  0  0  0
   38.6880   36.2820   23.4610 C   0  0  0  0  0  0  0  0  0  0  0  0
  1  7  1  0
  2  9  1  0
  2 19  1  0
  4 13  1  0
  4  6  1  0
  4  2  1  0
  5 12  1  0
  6 15  1  0
  8  9  1  0
 10 18  2  0
 10 17  1  0
 13  8  1  0
 14 11  1  0
 14 10  1  0
 15 19  1  0
 15  3  2  0
 16  1  1  0
 16 12  2  0
 17  5  2  0
 18 16  1  0
 19 14  1  0
M  END
$$$$

     RDKit          3D

 10 10  0  0  0  0  0  0  0  0999 V2000
   40.2890   35.6530   24.9780 S   0  0  0  0  0  0  0  0  0  0  0  0
   43.4030   35.5070   22.7030 O   0  0  0  0  0  0  0  0  0  0  0  0
   42.3030   34.7580   23.3050 C   0  0  0  0  0  0  0  0  0  0  0  0
   40.2590   36.0470   27.4360 Cl  0  0  0  0  0  0  0  0  0  0  0  0
   39.2160   34.4590   24.6810 O   0  0  0  0  0  0  0  0  0  0  0  0
   41.8430   36.6970   24.9820 C   0  0  0  0  0  0  0  0  0  0  0  0
   42.6840   36.3050   25.9840 O   0  0  0  0  0  0  0  0  0  0  0  0
   38.8570   37.1810   23.5500 O   0  0  0  0  0  0  0  0  0  0  0  0
   41.2390   35.7650   23.6580 C   0  0  0  0  0  0  0  0  0  0  0  0
   39.3980   36.8760   24.9280 C   0  0  0  0  0  0  0  0  0  0  0  0
  1  6  1  0
  1  4  1  0
  2  3  1  0
  5  1  1  0
  6  7  1  0
  8 10  1  0
  9  3  1  0
  9  1  1  0
  9  6  1  0
 10  1  1  0
M  END
$$$$

     RDKit          3D

 18 18  0  0  0  0  0  0  0  0999 V2000
   40.9510   36.0470   27.5110 N   0  0  0  0  0  0  0  0  0  0  0  0
   39.9980   34.3370   23.3330 F   0  0  0  0  0  0  0  0  0  0  0  0
   36.7000   36.6010   22.8040 C   0  0  0  0  0  0  0  0  0  0  0  0
   39.5690   34.0400   27.4140 C   0  0  0  0  0  0  0  0  0  0  0  0
   35.7410   37.4550   22.5360 F   0  0  0  0  0  0  0  0  0  0  0  0
   38.9040   35.0900   23.1710 C   0  0  0  0  0  0  0  0  0  0  0  0
   40.7670   36.8760   26.4430 C   0  0  0  0  0  0  0  0  0  0  0  0
   36.5930   35.2070   22.5200 C   0  0  0  0  0  0  0  0  0  0  0  0
   40.2060   36.9220   23.9490 C   0  0  0  0  0  0  0  0  0  0  0  0
   41.8000   33.9410   28.4600 C   0  0  0  0  0  0  0  0  0  0  0  0
   40.9040   38.0590   26.5210 O   0  0  0  0  0  0  0  0  0  0  0  0
   37.8630   37.2080   23.3110 C   0  0  0  0  0  0  0  0  0  0  0  0
   37.7300   34.4690   22.7300 C   0  0  0  0  0  0  0  0  0  0  0  0
   39.3510   33.0140   28.3080 N   0  0  0  0  0  0  0  0  0  0  0  0
   38.9410   36.4080   23.5170 C   0  0  0  0  0  0  0  0  0  0  0  0
   40.8990   36.8250   22.5390 C   0  0  0  0  0  0  0  0  0  0  0  0
   40.8460   34.7750   27.7160 C   0  0  0  0  0  0  0  0  0  0  0  0
   40.6540   36.3270   25.2160 N   0  0  0  0  0  0  0  0  0  0  0  0
  1 17  1  0
  3 12  1  0
  4 17  1  0
  4 14  1  0
  5  3  1  0
  6  2  1  0
  6 15  1  0
  7 11  2  0
  7  1  1  0
  8 13  1  0
  8  3  2  0
  9 16  1  0
  9 18  1  0
 12 15  2  0
 13  6  2  0
 15  9  1  0
 17 10  1  0
 18  7  1  0
M  END
$$$$

     RDKit          3D

  6  5  0  0  0  0  0  0  0  0999 V2000
   41.3010   33.9850   27.7010 N   0  0  0  0  0  0  0  0  0  0  0  0
   40.1400   34.8490   27.8410 C   0  0  0  0  0  0  0  0  0  0  0  0
   40.9660   36.3830   25.7820 C   0  0  0  0  0  0  0  0  0  0  0  0
   42.1670   36.0510   25.9360 O   0  0  0  0  0  0  0  0  0  0  0  0
   40.3960   37.0410   24.5180 C   0  0  0  0  0  0  0  0  0  0  0  0
   39.9850   36.1180   26.9440 C   0  0  0  0  0  0  0  0  0  0  0  0
  1  2  1  0
  3  4  2  0
  3  6  1  0
  5  3  1  0
  6  2  2  3
M  END
$$$$

     RDKit          3D

  4  3  0  0  0  0  0  0  0  0999 V2000
   40.2550   36.1300   26.5800 C   0  0  0  0  0  0  0  0  0  0  0  0
   41.8940   36.9170   25.0800 C   0  0  0  0  0  0  0  0  0  0  0  0
   41.3950   35.4300   26.9030 O   0  0  0  0  0  0  0  0  0  0  0  0
   40.6310   36.9880   25.3810 C   0  0  0  0  0  0  0  0  0  0  0  0
  1  3  1  0
  2  4  1  0
  4  1  1  0
M  END
$$$$

     RDKit          3D

 18 19  0  0  0  0  0  0  0  0999 V2000
   41.4420   36.0760   27.4620 C   0  0  0  0  0  0  0  0  0  0  0  0
   39.1030   36.3220   24.6140 N   0  0  0  0  0  0  0  0  0  0  0  0
   41.5670   36.2430   25.1430 N   0  0  0  0  0  0  0  0  0  0  0  0
   42.9130   35.8870   25.5030 C   0  0  0  0  0  0  0  0  0  0  0  0
   38.2480   37.2130   23.9710 C   0  0  0  0  0  0  0  0  0  0  0  0
   41.0500   36.8880   22.8420 C   0  0  0  0  0  0  0  0  0  0  0  0
   43.3980   35.1770   28.1780 O   0  0  0  0  0  0  0  0  0  0  0  0
   42.6700   35.3630   26.9080 C   0  0  0  0  0  0  0  0  0  0  0  0
   39.9830   34.4600   27.7820 C   0  0  0  0  0  0  0  0  0  0  0  0
   40.9300   35.1300   28.4330 O   0  0  0  0  0  0  0  0  0  0  0  0
   39.7000   34.3220   24.1760 O   0  0  0  0  0  0  0  0  0  0  0  0
   39.6570   36.9920   22.2290 C   0  0  0  0  0  0  0  0  0  0  0  0
   39.2630   36.4610   26.0860 C   0  0  0  0  0  0  0  0  0  0  0  0
   39.3020   35.5540   22.3290 C   0  0  0  0  0  0  0  0  0  0  0  0
   39.3360   35.3620   23.8910 C   0  0  0  0  0  0  0  0  0  0  0  0
   40.6910   36.1320   26.2090 C   0  0  0  0  0  0  0  0  0  0  0  0
   41.3810   37.4550   24.3480 C   0  0  0  0  0  0  0  0  0  0  0  0
   38.3750   35.4570   21.1010 O   0  0  0  0  0  0  0  0  0  0  0  0
  1 10  1  0
  2 13  1  0
  3 17  1  0
  3  4  1  0
  3 16  1  0
  4  8  1  0
  5  2  1  0
  6 17  1  0
  8  1  1  0
  8  7  1  0
  9 10  1  0
 12 14  1  0
 12  6  1  0
 14 18  1  0
 14 15  1  0
 15 11  2  0
 15  2  1  0
 16 13  1  0
 16  1  1  0
M  END
$$$$

     RDKit          3D

 13 13  0  0  0  0  0  0  0  0999 V2000
   40.9810   35.9390   26.9620 C   0  0  0  0  0  0  0  0  0  0  0  0
   38.9720   35.9920   23.6030 C   0  0  0  0  0  0  0  0  0  0  0  0
   40.6150   35.9730   25.4680 C   0  0  0  0  0  0  0  0  0  0  0  0
   40.0620   34.9730   27.7490 C   0  0  0  0  0  0  0  0  0  0  0  0
   37.7250   36.2090   22.9880 N   0  0  0  0  0  0  0  0  0  0  0  0
   40.9280   37.3410   27.4040 N   0  0  0  0  0  0  0  0  0  0  0  0
   37.7810   35.3680   21.7660 C   0  0  0  0  0  0  0  0  0  0  0  0
   38.3450   36.1830   20.6090 C   0  0  0  0  0  0  0  0  0  0  0  0
   42.5090   35.6270   27.2330 N   0  0  0  0  0  0  0  0  0  0  0  0
   39.2770   36.2620   24.9700 C   0  0  0  0  0  0  0  0  0  0  0  0
   41.2690   35.3020   23.1760 C   0  0  0  0  0  0  0  0  0  0  0  0
   39.8960   35.3870   22.7800 C   0  0  0  0  0  0  0  0  0  0  0  0
   41.5960   35.6420   24.4490 C   0  0  0  0  0  0  0  0  0  0  0  0
  1  9  1  0
  1  6  1  0
  1  4  1  0
  2 10  1  0
  3  1  1  0
  5  2  1  0
  7  5  1  0
  8  7  1  0
 10  3  2  0
 11 13  2  0
 12 11  1  0
 12  2  2  0
 13  3  1  0
M  END
$$$$

     RDKit          3D

 30 32  0  0  0  0  0  0  0  0999 V2000
   41.3440   35.3300   27.2360 C   0  0  0  0  0  0  0  0  0  0  0  0
   41.2500   36.8960   26.7390 C   0  0  0  0  0  0  0  0  0  0  0  0
   37.5790   34.2720   27.9080 C   0  0  0  0  0  0  0  0  0  0  0  0
   35.3850   37.0430   23.2730 C   0  0  0  0  0  0  0  0  0  0  0  0
   32.3080   36.8610   31.5930 C   0  0  0  0  0  0  0  0  0  0  0  0
   43.1510   39.2490   28.3490 C   0  0  0  0  0  0  0  0  0  0  0  0
   40.7430   37.1260   24.1360 C   0  0  0  0  0  0  0  0  0  0  0  0
   41.6080   37.8610   27.2480 O   0  0  0  0  0  0  0  0  0  0  0  0
   39.7700   34.8860   23.8840 C   0  0  0  0  0  0  0  0  0  0  0  0
   36.6820   34.2590   22.2530 C   0  0  0  0  0  0  0  0  0  0  0  0
   38.9930   34.8640   26.6260 O   0  0  0  0  0  0  0  0  0  0  0  0
   42.9190   37.8070   27.8340 C   0  0  0  0  0  0  0  0  0  0  0  0
   30.7350   34.8970   31.7140 O   0  0  0  0  0  0  0  0  0  0  0  0
   38.9420   34.1670   28.2650 C   0  0  0  0  0  0  0  0  0  0  0  0
   34.5910   33.5050   29.3020 C   0  0  0  0  0  0  0  0  0  0  0  0
   30.4340   36.7450   33.5660 C   0  0  0  0  0  0  0  0  0  0  0  0
   40.5270   36.8450   25.4350 C   0  0  0  0  0  0  0  0  0  0  0  0
   37.4940   35.8310   23.9590 C   0  0  0  0  0  0  0  0  0  0  0  0
   38.7260   35.3990   23.1050 C   0  0  0  0  0  0  0  0  0  0  0  0
   39.8810   34.9760   27.6690 C   0  0  0  0  0  0  0  0  0  0  0  0
   35.0340   34.8470   29.6220 C   0  0  0  0  0  0  0  0  0  0  0  0
   40.8360   35.6850   24.5310 N   0  0  0  0  0  0  0  0  0  0  0  0
   36.5080   33.8560   27.9640 C   0  0  0  0  0  0  0  0  0  0  0  0
   31.6240   35.7890   32.5510 S   0  0  0  0  0  0  0  0  0  0  0  0
   38.2780   34.4870   21.9340 C   0  0  0  0  0  0  0  0  0  0  0  0
   36.2390   35.4320   23.2390 N   0  0  0  0  0  0  0  0  0  0  0  0
   34.3250   35.2400   30.9350 C   0  0  0  0  0  0  0  0  0  0  0  0
   35.1340   33.1540   27.8320 C   0  0  0  0  0  0  0  0  0  0  0  0
   32.4250   34.9510   33.6370 N   0  0  0  0  0  0  0  0  0  0  0  0
   33.3710   36.3120   30.6490 C   0  0  0  0  0  0  0  0  0  0  0  0
  2  1  1  0
  2  8  1  0
  3 23  1  0
  5 24  1  0
  7 22  1  0
  7 17  1  0
  8 12  1  0
  9 22  1  0
 10 26  1  0
 11 20  1  0
 11 14  1  0
 12  6  1  0
 13 24  1  0
 14  3  1  0
 15 21  1  0
 17  2  1  0
 19  9  1  0
 19 18  1  0
 20  1  1  0
 20 14  1  0
 21 27  1  0
 22 17  1  0
 24 16  1  0
 24 29  1  0
 25 10  1  0
 25 19  1  0
 26  4  1  0
 26 18  1  0
 28 23  1  0
 28 15  1  0
 30 27  1  0
 30  5  1  0
M  END
$$$$

     RDKit          3D

 11 10  0  0  0  0  0  0  0  0999 V2000
   44.0910   35.5080   24.1970 C   0  0  0  0  0  0  0  0  0  0  0  0
   40.7010   36.4480   25.4920 C   0  0  0  0  0  0  0  0  0  0  0  0
   39.3250   36.9900   23.4030 C   0  0  0  0  0  0  0  0  0  0  0  0
   41.9490   36.4960   24.7640 C   0  0  0  0  0  0  0  0  0  0  0  0
   40.5260   34.5490   27.8080 C   0  0  0  0  0  0  0  0  0  0  0  0
   40.9100   36.8140   26.9300 C   0  0  0  0  0  0  0  0  0  0  0  0
   41.1070   35.9330   27.9020 C   0  0  0  0  0  0  0  0  0  0  0  0
   39.8850   35.7500   22.9680 O   0  0  0  0  0  0  0  0  0  0  0  0
   43.1300   35.7440   25.3310 C   0  0  0  0  0  0  0  0  0  0  0  0
   39.3640   37.0020   24.9150 C   0  0  0  0  0  0  0  0  0  0  0  0
   42.5050   34.5600   25.6020 N   0  0  0  0  0  0  0  0  0  0  0  0
  2  4  1  0
  2  6  1  0
  3 10  1  0
  4  9  1  0
  5  7  1  0
  6  7  1  0
  8  3  1  0
  9  1  1  0
  9 11  1  0
 10  2  1  0
M  END
$$$$

     RDKit          3D

  8  8  0  0  0  0  0  0  0  0999 V2000
   42.6330   36.4400   27.7990 N   0  0  0  0  0  0  0  0  0  0  0  0
   42.4700   37.1910   24.8050 C   0  0  0  0  0  0  0  0  0  0  0  0
   40.0740   36.6800   25.3060 C   0  0  0  0  0  0  0  0  0  0  0  0
   41.8190   35.6620   26.8170 C   0  0  0  0  0  0  0  0  0  0  0  0
   40.4240   35.4890   27.4750 C   0  0  0  0  0  0  0  0  0  0  0  0
   43.6560   36.4580   24.4380 O   0  0  0  0  0  0  0  0  0  0  0  0
   41.5160   36.1340   25.3550 C   0  0  0  0  0  0  0  0  0  0  0  0
   39.4200   36.3330   26.6670 C   0  0  0  0  0  0  0  0  0  0  0  0
  3  7  1  0
  3  8  1  0
  4  5  1  0
  4  1  1  0
  6  2  1  0
  7  2  1  0
  7  4  1  0
  8  5  1  0
M  END
$$$$

     RDKit          3D

 16 17  0  0  0  0  0  0  0  0999 V2000
   38.1600   37.3210   23.0780 C   0  0  0  0  0  0  0  0  0  0  0  0
   37.1990   37.9430   22.2590 C   0  0  0  0  0  0  0  0  0  0  0  0
   39.9480   34.1690   28.3270 C   0  0  0  0  0  0  0  0  0  0  0  0
   41.3290   34.5030   28.0390 N   0  0  0  0  0  0  0  0  0  0  0  0
   40.0870   35.8300   26.8660 C   0  0  0  0  0  0  0  0  0  0  0  0
   39.6180   36.9850   26.0930 C   0  0  0  0  0  0  0  0  0  0  0  0
   36.2660   35.7300   21.7970 C   0  0  0  0  0  0  0  0  0  0  0  0
   38.7760   35.3100   24.2880 C   0  0  0  0  0  0  0  0  0  0  0  0
   40.2810   36.6190   24.4390 S   0  0  0  0  0  0  0  0  0  0  0  0
   39.2030   35.0820   27.5320 N   0  0  0  0  0  0  0  0  0  0  0  0
   37.2290   35.1690   22.5170 N   0  0  0  0  0  0  0  0  0  0  0  0
   36.2240   37.1660   21.6520 C   0  0  0  0  0  0  0  0  0  0  0  0
   39.1550   34.1880   23.9440 O   0  0  0  0  0  0  0  0  0  0  0  0
   35.3480   35.0220   21.3220 N   0  0  0  0  0  0  0  0  0  0  0  0
   41.3750   35.4170   27.1220 N   0  0  0  0  0  0  0  0  0  0  0  0
   38.0710   35.9300   23.2290 C   0  0  0  0  0  0  0  0  0  0  0  0
  1 16  1  0
  2  1  2  0
  4  3  2  0
  5 15  1  0
  5 10  2  0
  6  5  1  0
  7 11  1  0
  8 13  1  0
  8  9  1  0
  9  6  1  0
 10  3  1  0
 11 16  2  0
 12  7  2  0
 12  2  1  0
 14  7  1  0
 15  4  1  0
 16  8  1  0
M  END
$$$$

     RDKit          3D

 11 12  0  0  0  0  0  0  0  0999 V2000
   40.3440   34.6050   28.2870 C   0  0  0  0  0  0  0  0  0  0  0  0
   41.0510   35.4770   25.1990 N   0  0  0  0  0  0  0  0  0  0  0  0
   41.9050   34.9570   26.4520 C   0  0  0  0  0  0  0  0  0  0  0  0
   40.1640   36.3370   25.6760 C   0  0  0  0  0  0  0  0  0  0  0  0
   39.1250   34.3620   23.5360 O   0  0  0  0  0  0  0  0  0  0  0  0
   41.3790   35.5580   27.7020 C   0  0  0  0  0  0  0  0  0  0  0  0
   41.2580   37.8770   23.6600 Br  0  0  0  0  0  0  0  0  0  0  0  0
   37.5250   36.8290   23.0700 S   0  0  0  0  0  0  0  0  0  0  0  0
   40.8240   36.8230   27.0300 C   0  0  0  0  0  0  0  0  0  0  0  0
   39.1130   35.6500   23.3850 C   0  0  0  0  0  0  0  0  0  0  0  0
   40.1900   36.3590   24.1730 C   0  0  0  0  0  0  0  0  0  0  0  0
  2  4  1  0
  2  3  1  0
  3  6  1  0
  4  9  1  0
  6  1  1  0
  8 10  1  0
  9  6  1  0
 10  5  2  0
 10 11  1  0
 11  7  1  0
 11  2  1  0
 11  4  1  0
M  END
$$$$

     RDKit          3D

 31 34  0  0  0  0  0  0  0  0999 V2000
   41.5240   35.6570   24.8580 C   0  0  0  0  0  0  0  0  0  0  0  0
   40.8580   36.0470   26.1500 C   0  0  0  0  0  0  0  0  0  0  0  0
   38.3510   33.8600   30.7110 C   0  0  0  0  0  0  0  0  0  0  0  0
   42.7390   34.9260   24.5760 C   0  0  0  0  0  0  0  0  0  0  0  0
   36.7580   34.5000   32.2080 C   0  0  0  0  0  0  0  0  0  0  0  0
   33.7720   35.3640   35.9520 C   0  0  0  0  0  0  0  0  0  0  0  0
   40.1420   37.3200   25.4240 C   0  0  0  0  0  0  0  0  0  0  0  0
   33.3350   38.8720   36.3390 O   0  0  0  0  0  0  0  0  0  0  0  0
   39.6650   34.0060   30.2300 C   0  0  0  0  0  0  0  0  0  0  0  0
   37.1920   32.6650   30.7420 S   0  0  0  0  0  0  0  0  0  0  0  0
   40.1290   33.3500   27.4430 O   0  0  0  0  0  0  0  0  0  0  0  0
   43.0460   34.3510   23.2900 C   0  0  0  0  0  0  0  0  0  0  0  0
   40.8050   35.2100   22.4680 C   0  0  0  0  0  0  0  0  0  0  0  0
   31.3190   37.8960   35.6430 O   0  0  0  0  0  0  0  0  0  0  0  0
   34.3810   36.4670   33.9450 N   0  0  0  0  0  0  0  0  0  0  0  0
   39.6890   37.1160   24.1420 C   0  0  0  0  0  0  0  0  0  0  0  0
   41.6510   35.1660   27.2610 C   0  0  0  0  0  0  0  0  0  0  0  0
   36.2880   35.4690   33.1730 C   0  0  0  0  0  0  0  0  0  0  0  0
   40.6350   34.2660   27.9840 C   0  0  0  0  0  0  0  0  0  0  0  0
   32.6170   37.6330   35.9240 C   0  0  0  0  0  0  0  0  0  0  0  0
   40.2400   34.5250   29.1620 N   0  0  0  0  0  0  0  0  0  0  0  0
   34.4910   35.7230   34.7290 C   0  0  0  0  0  0  0  0  0  0  0  0
   42.0340   34.4390   22.2370 C   0  0  0  0  0  0  0  0  0  0  0  0
   31.4630   34.2990   37.6410 C   0  0  0  0  0  0  0  0  0  0  0  0
   35.3130   36.1440   32.6520 N   0  0  0  0  0  0  0  0  0  0  0  0
   35.6760   34.9640   34.4250 C   0  0  0  0  0  0  0  0  0  0  0  0
   36.1110   33.3460   31.7930 C   0  0  0  0  0  0  0  0  0  0  0  0
   32.6080   36.1810   36.3270 C   0  0  0  0  0  0  0  0  0  0  0  0
   37.9780   34.7520   31.5040 C   0  0  0  0  0  0  0  0  0  0  0  0
   40.6490   35.9880   23.6810 C   0  0  0  0  0  0  0  0  0  0  0  0
   31.4370   35.6980   37.2060 O   0  0  0  0  0  0  0  0  0  0  0  0
  1  2  1  0
  2 17  1  0
  3 10  1  0
  3 29  2  0
  4  1  1  0
  7  2  1  0
  9  3  1  0
 10 27  1  0
 11 19  2  0
 12  4  2  0
 13 30  1  0
 14 20  2  0
 15 22  1  0
 16  7  1  0
 17 19  1  0
 18  5  1  0
 18 26  1  0
 19 21  1  0
 20 28  1  0
 20  8  1  0
 21  9  1  0
 22  6  2  3
 23 13  2  0
 23 12  1  0
 25 18  1  0
 25 15  1  0
 26 22  1  0
 27  5  2  0
 28  6  1  0
 28 31  1  0
 29  5  1  0
 30 16  1  0
 30  1  2  0
 31 24  1  0
M  END
$$$$

     RDKit          3D

 11 10  0  0  0  0  0  0  0  0999 V2000
   42.9940   38.7200   25.9970 O   0  0  0  0  0  0  0  0  0  0  0  0
   42.2540   35.9500   28.4090 N   0  0  0  0  0  0  0  0  0  0  0  0
   41.2090   37.4770   26.6290 N   0  0  0  0  0  0  0  0  0  0  0  0
   39.9980   35.3820   27.4290 C   0  0  0  0  0  0  0  0  0  0  0  0
   44.0940   36.4610   26.0120 S   0  0  0  0  0  0  0  0  0  0  0  0
   40.3040   35.4600   24.8720 C   0  0  0  0  0  0  0  0  0  0  0  0
   39.6450   34.3540   24.6210 O   0  0  0  0  0  0  0  0  0  0  0  0
   40.0500   36.2680   26.1340 C   0  0  0  0  0  0  0  0  0  0  0  0
   41.1140   35.9010   24.1380 O   0  0  0  0  0  0  0  0  0  0  0  0
   42.6700   37.5150   26.0280 C   0  0  0  0  0  0  0  0  0  0  0  0
   41.4900   35.0380   27.5380 C   0  0  0  0  0  0  0  0  0  0  0  0
  1 10  2  0
  4 11  1  0
  5 10  1  0
  6  8  1  0
  7  6  1  0
  8  3  1  0
  8  4  1  0
  9  6  2  0
 10  3  1  0
 11  2  1  0
M  END
$$$$

     RDKit          3D

 13 13  0  0  0  0  0  0  0  0999 V2000
   39.9970   35.4030   26.9550 C   0  0  0  0  0  0  0  0  0  0  0  0
   41.6350   36.1880   24.7270 O   0  0  0  0  0  0  0  0  0  0  0  0
   43.7490   36.7420   28.2330 N   0  0  0  0  0  0  0  0  0  0  0  0
   39.4360   37.2500   22.5650 C   0  0  0  0  0  0  0  0  0  0  0  0
   39.5380   34.7890   22.5910 O   0  0  0  0  0  0  0  0  0  0  0  0
   43.8250   35.7210   27.4000 C   0  0  0  0  0  0  0  0  0  0  0  0
   39.3610   35.9600   24.6910 C   0  0  0  0  0  0  0  0  0  0  0  0
   41.3450   35.8490   27.1120 C   0  0  0  0  0  0  0  0  0  0  0  0
   45.0900   35.2170   27.1670 N   0  0  0  0  0  0  0  0  0  0  0  0
   38.9490   35.9160   23.1770 C   0  0  0  0  0  0  0  0  0  0  0  0
   40.5140   35.9430   25.6860 C   0  0  0  0  0  0  0  0  0  0  0  0
   42.6720   35.1930   26.7800 C   0  0  0  0  0  0  0  0  0  0  0  0
   38.7450   36.4030   25.5370 O   0  0  0  0  0  0  0  0  0  0  0  0
  1  8  1  0
  5 10  1  0
  6  3  1  0
  7 13  2  0
  7 11  1  0
  8 12  1  0
  9  6  2  0
 10  4  1  0
 10  7  1  0
 11  2  1  0
 11  1  1  0
 11  8  1  0
 12  6  1  0
M  END
$$$$
