
     RDKit          3D

 27 28  0  0  0  0  0  0  0  0999 V2000
   36.0140   38.3420   21.7300 O   0  0  0  0  0  0  0  0  0  0  0  0
   34.7800   39.1170   20.5160 O   0  0  0  0  0  0  0  0  0  0  0  0
   32.4550   41.1220   21.8440 O   0  0  0  0  0  0  0  0  0  0  0  0
   35.1550   39.2190   24.2740 C   0  0  0  0  0  0  0  0  0  0  0  0
   29.1140   40.2270   24.1870 C   0  0  0  0  0  0  0  0  0  0  0  0
   38.1950   40.7280   23.1460 C   0  0  0  0  0  0  0  0  0  0  0  0
   43.4630   39.3830   21.8040 O   0  0  0  0  0  0  0  0  0  0  0  0
   40.1960   39.5440   21.3500 O   0  0  0  0  0  0  0  0  0  0  0  0
   41.4130   38.7160   21.0200 C   0  0  0  0  0  0  0  0  0  0  0  0
   42.4610   39.7250   20.8620 C   0  0  0  0  0  0  0  0  0  0  0  0
   39.1840   41.0590   22.5710 N   0  0  0  0  0  0  0  0  0  0  0  0
   40.3720   40.3460   22.2380 C   0  0  0  0  0  0  0  0  0  0  0  0
   37.2540   39.6310   23.3250 C   0  0  0  0  0  0  0  0  0  0  0  0
   31.4980   39.5110   23.4360 C   0  0  0  0  0  0  0  0  0  0  0  0
   33.7320   39.1870   22.6480 C   0  0  0  0  0  0  0  0  0  0  0  0
   42.9210   39.9890   22.9640 C   0  0  0  0  0  0  0  0  0  0  0  0
   41.5090   40.6210   23.1130 C   0  0  0  0  0  0  0  0  0  0  0  0
   33.8390   39.0780   24.5850 S   0  0  0  0  0  0  0  0  0  0  0  0
   36.2370   40.9720   25.4770 C   0  0  0  0  0  0  0  0  0  0  0  0
   29.2350   40.1890   22.7950 C   0  0  0  0  0  0  0  0  0  0  0  0
   37.8480   41.5530   23.6630 O   0  0  0  0  0  0  0  0  0  0  0  0
   35.0210   39.2490   21.8520 C   0  0  0  0  0  0  0  0  0  0  0  0
   31.3540   38.3870   24.4460 C   0  0  0  0  0  0  0  0  0  0  0  0
   30.5730   37.3440   23.6400 O   0  0  0  0  0  0  0  0  0  0  0  0
   36.3270   39.8240   24.4410 C   0  0  0  0  0  0  0  0  0  0  0  0
   30.4690   40.6110   23.6270 C   0  0  0  0  0  0  0  0  0  0  0  0
   32.7780   40.2700   22.9780 C   0  0  0  0  0  0  0  0  0  0  0  0
  1 22  1  0
  2 22  1  0
  4 25  2  3
  4 18  1  0
  6 13  1  0
  6 21  2  0
  7 16  1  0
  8 12  1  0
  9  8  1  0
 10  9  1  0
 10  7  1  0
 11  6  1  0
 12 11  1  0
 12 17  2  0
 13 25  1  0
 14 26  1  0
 14 23  1  0
 15 22  1  0
 15 27  1  0
 15 18  1  0
 16 17  1  0
 20 26  1  0
 20  5  1  0
 24 23  1  0
 25 19  1  0
 26  5  1  0
 27  3  1  0
 27 14  1  0
M  END
$$$$

     RDKit          3D

 13 13  0  0  0  0  0  0  0  0999 V2000
   38.7560   42.5750   22.5310 C   0  0  0  0  0  0  0  0  0  0  0  0
   37.1190   42.6090   24.3930 C   0  0  0  0  0  0  0  0  0  0  0  0
   39.4650   43.6320   23.1150 C   0  0  0  0  0  0  0  0  0  0  0  0
   37.8240   43.6530   24.8670 C   0  0  0  0  0  0  0  0  0  0  0  0
   35.9850   42.2730   24.9000 N   0  0  0  0  0  0  0  0  0  0  0  0
   38.9810   44.2030   24.2870 C   0  0  0  0  0  0  0  0  0  0  0  0
   37.7220   41.9450   23.2420 C   0  0  0  0  0  0  0  0  0  0  0  0
   36.4320   39.8410   23.5900 C   0  0  0  0  0  0  0  0  0  0  0  0
   37.0870   40.8260   22.7010 N   0  0  0  0  0  0  0  0  0  0  0  0
   37.3070   38.0730   21.2930 C   0  0  0  0  0  0  0  0  0  0  0  0
   35.8240   41.5400   20.5350 S   0  0  0  0  0  0  0  0  0  0  0  0
   37.0930   40.4920   21.3100 C   0  0  0  0  0  0  0  0  0  0  0  0
   36.6640   39.1680   20.7570 C   0  0  0  0  0  0  0  0  0  0  0  0
  1  3  2  0
  1  7  1  0
  2  4  1  0
  2  5  1  0
  3  6  1  0
  6  4  2  0
  7  2  2  0
  9  7  1  0
  9  8  1  0
 12 11  1  0
 12  9  1  0
 13 10  1  0
 13 12  1  0
M  END
$$$$

     RDKit          3D

  8  8  0  0  0  0  0  0  0  0999 V2000
   36.1620   40.7940   23.0970 C   0  0  0  0  0  0  0  0  0  0  0  0
   35.6370   39.8150   22.3260 C   0  0  0  0  0  0  0  0  0  0  0  0
   35.4970   41.9260   23.5210 N   0  0  0  0  0  0  0  0  0  0  0  0
   34.3780   42.1560   22.7260 C   0  0  0  0  0  0  0  0  0  0  0  0
   36.4620   38.7590   22.1160 C   0  0  0  0  0  0  0  0  0  0  0  0
   37.3720   40.3420   23.5440 N   0  0  0  0  0  0  0  0  0  0  0  0
   37.5870   39.0690   22.9530 N   0  0  0  0  0  0  0  0  0  0  0  0
   33.6490   42.2000   21.8110 N   0  0  0  0  0  0  0  0  0  0  0  0
  1  3  1  0
  1  6  2  0
  2  1  1  0
  4  3  1  0
  5  2  2  0
  5  7  1  0
  7  6  1  0
  8  4  3  0
M  END
$$$$

     RDKit          3D

 18 18  0  0  0  0  0  0  0  0999 V2000
   34.5070   39.4860   23.7030 C   0  0  0  0  0  0  0  0  0  0  0  0
   37.0000   40.2400   24.3000 N   0  0  0  0  0  0  0  0  0  0  0  0
   33.9920   38.2420   21.7430 C   0  0  0  0  0  0  0  0  0  0  0  0
   30.5570   39.0810   23.6960 Cl  0  0  0  0  0  0  0  0  0  0  0  0
   37.3910   39.2640   23.1590 C   0  0  0  0  0  0  0  0  0  0  0  0
   40.1400   42.0410   23.0350 O   0  0  0  0  0  0  0  0  0  0  0  0
   38.4420   42.2530   25.4480 N   0  0  0  0  0  0  0  0  0  0  0  0
   32.7020   38.0400   22.2520 C   0  0  0  0  0  0  0  0  0  0  0  0
   36.3940   38.9080   22.2470 C   0  0  0  0  0  0  0  0  0  0  0  0
   33.1850   39.4270   24.0960 C   0  0  0  0  0  0  0  0  0  0  0  0
   38.2830   41.0350   24.6690 C   0  0  0  0  0  0  0  0  0  0  0  0
   34.9350   38.8750   22.5440 C   0  0  0  0  0  0  0  0  0  0  0  0
   37.4540   42.7500   22.9050 C   0  0  0  0  0  0  0  0  0  0  0  0
   36.7160   38.5940   20.9860 O   0  0  0  0  0  0  0  0  0  0  0  0
   38.6930   41.9400   23.4460 C   0  0  0  0  0  0  0  0  0  0  0  0
   32.2680   38.8130   23.3000 C   0  0  0  0  0  0  0  0  0  0  0  0
   34.4960   37.8970   19.8650 Br  0  0  0  0  0  0  0  0  0  0  0  0
   38.6450   38.7680   23.0050 N   0  0  0  0  0  0  0  0  0  0  0  0
  1 10  1  0
  2 11  1  0
  3  8  2  0
  3 12  1  0
  5  2  1  0
  6 15  1  0
  8 16  1  0
  9 14  1  0
  9 12  1  0
  9  5  1  0
 11  7  1  0
 12  1  2  0
 15 13  1  0
 15 11  1  0
 16  4  1  0
 16 10  2  0
 17  3  1  0
 18  5  2  0
M  END
$$$$

     RDKit          3D

 10 10  0  0  0  0  0  0  0  0999 V2000
   36.3860   43.4890   24.0740 O   0  0  0  0  0  0  0  0  0  0  0  0
   36.4900   39.7840   20.7150 C   0  0  0  0  0  0  0  0  0  0  0  0
   37.2250   43.9470   21.8710 O   0  0  0  0  0  0  0  0  0  0  0  0
   36.5490   38.8760   21.8620 C   0  0  0  0  0  0  0  0  0  0  0  0
   36.5420   41.6720   22.2700 C   0  0  0  0  0  0  0  0  0  0  0  0
   36.7500   41.1840   20.9310 C   0  0  0  0  0  0  0  0  0  0  0  0
   36.1960   43.2940   22.5960 S   0  0  0  0  0  0  0  0  0  0  0  0
   35.0060   43.7690   22.3570 F   0  0  0  0  0  0  0  0  0  0  0  0
   36.6960   39.3770   23.1720 C   0  0  0  0  0  0  0  0  0  0  0  0
   36.7710   40.7580   23.3850 C   0  0  0  0  0  0  0  0  0  0  0  0
  2  6  2  0
  2  4  1  0
  3  7  2  0
  4  9  2  0
  5  7  1  0
  5 10  2  0
  6  5  1  0
  7  1  2  0
  8  7  1  0
  9 10  1  0
M  END
$$$$

     RDKit          3D

  9  8  0  0  0  0  0  0  0  0999 V2000
   36.3850   42.4550   24.5300 N   0  0  0  0  0  0  0  0  0  0  0  0
   36.3170   42.5790   23.1200 C   0  0  0  0  0  0  0  0  0  0  0  0
   34.8780   40.7860   21.8490 O   0  0  0  0  0  0  0  0  0  0  0  0
   36.0240   39.3310   23.6140 O   0  0  0  0  0  0  0  0  0  0  0  0
   36.1130   41.4770   22.0820 C   0  0  0  0  0  0  0  0  0  0  0  0
   38.6190   39.6240   23.3870 O   0  0  0  0  0  0  0  0  0  0  0  0
   37.0730   39.1480   21.3770 O   0  0  0  0  0  0  0  0  0  0  0  0
   36.1440   43.7470   22.8900 O   0  0  0  0  0  0  0  0  0  0  0  0
   37.0270   40.0790   22.7320 P   0  0  0  0  0  0  0  0  0  0  0  0
  2  1  1  0
  5  3  1  0
  5  9  1  0
  5  2  1  0
  7  9  2  0
  8  2  2  0
  9  6  1  0
  9  4  1  0
M  END
$$$$

     RDKit          3D

  7  7  0  0  0  0  0  0  0  0999 V2000
   36.9790   42.6740   24.3920 C   0  0  0  0  0  0  0  0  0  0  0  0
   38.9150   41.7560   23.0950 C   0  0  0  0  0  0  0  0  0  0  0  0
   36.6920   40.4310   23.4710 N   0  0  0  0  0  0  0  0  0  0  0  0
   38.3030   40.3420   23.4040 S   0  0  0  0  0  0  0  0  0  0  0  0
   38.2620   42.7590   23.5540 C   0  0  0  0  0  0  0  0  0  0  0  0
   36.6120   41.1840   24.6020 C   0  0  0  0  0  0  0  0  0  0  0  0
   38.1080   39.4530   22.0590 C   0  0  0  0  0  0  0  0  0  0  0  0
  1  6  1  0
  2  4  1  0
  2  5  2  0
  3  6  1  0
  4  7  1  0
  4  3  1  0
  5  1  1  0
M  END
$$$$

     RDKit          3D

 25 26  0  0  0  0  0  0  0  0999 V2000
   32.5940   36.8080   21.9790 C   0  0  0  0  0  0  0  0  0  0  0  0
   39.9900   41.1230   21.6800 C   0  0  0  0  0  0  0  0  0  0  0  0
   36.2440   42.7910   22.3920 O   0  0  0  0  0  0  0  0  0  0  0  0
   35.6580   39.1320   24.6710 C   0  0  0  0  0  0  0  0  0  0  0  0
   40.5550   39.3620   23.2270 N   0  0  0  0  0  0  0  0  0  0  0  0
   34.2290   37.8330   23.0230 C   0  0  0  0  0  0  0  0  0  0  0  0
   39.7560   40.8130   25.3010 C   0  0  0  0  0  0  0  0  0  0  0  0
   36.5410   43.0990   23.8130 P   0  0  0  0  0  0  0  0  0  0  0  0
   32.2510   38.1390   22.2680 C   0  0  0  0  0  0  0  0  0  0  0  0
   35.7540   42.3280   24.5420 C   0  0  0  0  0  0  0  0  0  0  0  0
   36.0390   44.5870   24.1980 O   0  0  0  0  0  0  0  0  0  0  0  0
   37.8100   42.8420   24.8810 O   0  0  0  0  0  0  0  0  0  0  0  0
   39.5920   40.5580   22.9980 C   0  0  0  0  0  0  0  0  0  0  0  0
   33.3090   38.7800   22.9320 N   0  0  0  0  0  0  0  0  0  0  0  0
   36.4700   38.1790   25.2640 N   0  0  0  0  0  0  0  0  0  0  0  0
   38.3870   38.6680   26.4130 C   0  0  0  0  0  0  0  0  0  0  0  0
   37.1890   37.8260   26.3530 C   0  0  0  0  0  0  0  0  0  0  0  0
   37.7760   40.4670   24.3560 C   0  0  0  0  0  0  0  0  0  0  0  0
   38.7790   39.5520   25.1430 C   0  0  0  0  0  0  0  0  0  0  0  0
   35.4160   38.1550   23.5760 N   0  0  0  0  0  0  0  0  0  0  0  0
   38.7230   41.1340   23.6390 N   0  0  0  0  0  0  0  0  0  0  0  0
   37.0130   36.9880   27.3340 N   0  0  0  0  0  0  0  0  0  0  0  0
   41.7860   39.5550   23.1500 C   0  0  0  0  0  0  0  0  0  0  0  0
   36.2560   40.5800   25.0530 C   0  0  0  0  0  0  0  0  0  0  0  0
   33.8650   36.6160   22.4270 N   0  0  0  0  0  0  0  0  0  0  0  0
  1  9  2  0
  1 25  1  0
  3  8  2  0
  4 20  1  0
  4 24  1  0
  4 15  1  0
  6 20  1  0
  8 11  1  0
  8 10  1  0
  8 12  1  0
  9 14  1  0
 13  2  1  0
 13  5  1  0
 13 21  1  0
 14  6  2  0
 15 17  1  0
 17 16  1  0
 17 22  2  0
 18 21  1  0
 18 24  1  0
 18 19  1  0
 19  7  1  0
 19 16  1  0
 23  5  2  0
 24 10  1  0
 25  6  2  0
M  END
$$$$

     RDKit          3D

  6  5  0  0  0  0  0  0  0  0999 V2000
   36.4470   43.2040   22.6590 N   0  0  0  0  0  0  0  0  0  0  0  0
   37.4270   40.0920   22.5640 C   0  0  0  0  0  0  0  0  0  0  0  0
   37.4280   38.8340   22.5350 O   0  0  0  0  0  0  0  0  0  0  0  0
   35.7590   42.0290   22.0780 C   0  0  0  0  0  0  0  0  0  0  0  0
   36.1500   40.8350   22.9470 C   0  0  0  0  0  0  0  0  0  0  0  0
   38.4840   40.7580   22.3820 O   0  0  0  0  0  0  0  0  0  0  0  0
  2  5  1  0
  3  2  1  0
  4  1  1  0
  4  5  1  0
  6  2  2  0
M  END
$$$$

     RDKit          3D

  8  8  0  0  0  0  0  0  0  0999 V2000
   38.5760   40.4740   24.3960 N   0  0  0  0  0  0  0  0  0  0  0  0
   37.5440   41.5910   25.0040 C   0  0  0  0  0  0  0  0  0  0  0  0
   36.1140   41.9900   22.8250 C   0  0  0  0  0  0  0  0  0  0  0  0
   36.5760   40.8040   21.8650 C   0  0  0  0  0  0  0  0  0  0  0  0
   38.3260   39.3990   23.3480 C   0  0  0  0  0  0  0  0  0  0  0  0
   37.4120   39.6460   22.1890 C   0  0  0  0  0  0  0  0  0  0  0  0
   36.6880   42.3990   24.1500 C   0  0  0  0  0  0  0  0  0  0  0  0
   35.1330   42.7410   22.3460 O   0  0  0  0  0  0  0  0  0  0  0  0
  1  2  1  0
  3  7  2  0
  4  6  2  0
  4  3  1  0
  5  1  2  0
  6  5  1  0
  7  2  1  0
  8  3  1  0
M  END
$$$$

     RDKit          3D

  6  5  0  0  0  0  0  0  0  0999 V2000
   37.4340   42.2130   24.1670 C   0  0  0  0  0  0  0  0  0  0  0  0
   36.9110   42.6440   25.2520 O   0  0  0  0  0  0  0  0  0  0  0  0
   38.5010   42.8010   23.9050 O   0  0  0  0  0  0  0  0  0  0  0  0
   36.9620   41.3270   23.1410 C   0  0  0  0  0  0  0  0  0  0  0  0
   37.0860   40.7110   22.1070 N   0  0  0  0  0  0  0  0  0  0  0  0
   38.2490   39.7650   22.0320 C   0  0  0  0  0  0  0  0  0  0  0  0
  1  2  1  0
  3  1  2  0
  4  1  1  0
  5  4  1  0
  6  5  1  0
M  END
$$$$

     RDKit          3D

  9  8  0  0  0  0  0  0  0  0999 V2000
   38.2980   43.5770   23.0690 N   0  0  0  0  0  0  0  0  0  0  0  0
   35.7280   43.4740   22.8800 O   0  0  0  0  0  0  0  0  0  0  0  0
   36.6000   38.8740   21.8870 N   0  0  0  0  0  0  0  0  0  0  0  0
   36.7880   42.4360   24.7790 O   0  0  0  0  0  0  0  0  0  0  0  0
   36.9350   42.7650   23.4600 S   0  0  0  0  0  0  0  0  0  0  0  0
   37.4740   39.4000   21.6410 C   0  0  0  0  0  0  0  0  0  0  0  0
   37.2530   41.1180   22.7160 C   0  0  0  0  0  0  0  0  0  0  0  0
   37.7350   40.8430   22.0170 N   0  0  0  0  0  0  0  0  0  0  0  0
   36.8120   40.0570   22.8140 C   0  0  0  0  0  0  0  0  0  0  0  0
  1  5  1  0
  2  5  2  0
  5  4  2  0
  6  3  2  0
  6  8  1  0
  7  9  2  0
  7  5  1  0
  8  7  1  0
M  END
$$$$

     RDKit          3D

  6  5  0  0  0  0  0  0  0  0999 V2000
   37.6000   40.8100   24.2120 C   0  0  0  0  0  0  0  0  0  0  0  0
   37.6350   38.6230   23.1370 C   0  0  0  0  0  0  0  0  0  0  0  0
   38.2820   42.0440   24.7700 N   0  0  0  0  0  0  0  0  0  0  0  0
   38.2940   40.0010   23.1110 C   0  0  0  0  0  0  0  0  0  0  0  0
   35.3510   40.6610   23.0780 C   0  0  0  0  0  0  0  0  0  0  0  0
   36.2670   41.3880   23.8580 C   0  0  0  0  0  0  0  0  0  0  0  0
  1  3  1  0
  4  2  1  0
  4  1  1  0
  5  6  1  0
  6  1  1  0
M  END
$$$$

     RDKit          3D

 10 10  0  0  0  0  0  0  0  0999 V2000
   37.7200   40.2250   22.1860 C   0  0  0  0  0  0  0  0  0  0  0  0
   35.7790   41.5780   22.3050 C   0  0  0  0  0  0  0  0  0  0  0  0
   34.4650   43.3660   21.5550 O   0  0  0  0  0  0  0  0  0  0  0  0
   34.9120   40.5190   22.3150 C   0  0  0  0  0  0  0  0  0  0  0  0
   36.8900   39.2070   22.4890 C   0  0  0  0  0  0  0  0  0  0  0  0
   35.4970   39.2710   22.4210 C   0  0  0  0  0  0  0  0  0  0  0  0
   35.2960   42.9590   22.4070 C   0  0  0  0  0  0  0  0  0  0  0  0
   37.1360   41.4940   22.1320 C   0  0  0  0  0  0  0  0  0  0  0  0
   37.3640   38.2150   22.9660 N   0  0  0  0  0  0  0  0  0  0  0  0
   35.5870   43.8430   23.1130 O   0  0  0  0  0  0  0  0  0  0  0  0
  1  5  1  0
  2  4  2  0
  2  7  1  0
  3  7  2  0
  4  6  1  0
  5  9  1  0
  6  5  2  0
  7 10  1  0
  8  1  2  0
  8  2  1  0
M  END
$$$$

     RDKit          3D

 20 20  0  0  0  0  0  0  0  0999 V2000
   41.1870   40.4160   23.9650 C   0  0  0  0  0  0  0  0  0  0  0  0
   37.1640   38.5080   26.2380 C   0  0  0  0  0  0  0  0  0  0  0  0
   36.5570   37.6190   25.4130 N   0  0  0  0  0  0  0  0  0  0  0  0
   37.0660   40.5340   25.0620 C   0  0  0  0  0  0  0  0  0  0  0  0
   34.4740   37.9010   22.9010 O   0  0  0  0  0  0  0  0  0  0  0  0
   34.7130   39.5750   24.3170 C   0  0  0  0  0  0  0  0  0  0  0  0
   33.4510   39.5340   24.4130 O   0  0  0  0  0  0  0  0  0  0  0  0
   39.9170   40.5030   24.8870 C   0  0  0  0  0  0  0  0  0  0  0  0
   33.0350   39.1830   21.5850 O   0  0  0  0  0  0  0  0  0  0  0  0
   37.5920   40.4450   23.7540 O   0  0  0  0  0  0  0  0  0  0  0  0
   41.3760   39.5280   23.0780 O   0  0  0  0  0  0  0  0  0  0  0  0
   42.0510   41.3280   24.1380 O   0  0  0  0  0  0  0  0  0  0  0  0
   33.4330   37.7650   21.6430 P   0  0  0  0  0  0  0  0  0  0  0  0
   34.2250   37.3540   20.5340 O   0  0  0  0  0  0  0  0  0  0  0  0
   34.3340   40.1850   21.7090 S   0  0  0  0  0  0  0  0  0  0  0  0
   35.2350   39.0830   22.9880 C   0  0  0  0  0  0  0  0  0  0  0  0
   37.8830   39.5580   25.8990 C   0  0  0  0  0  0  0  0  0  0  0  0
   32.2950   36.9430   22.0590 O   0  0  0  0  0  0  0  0  0  0  0  0
   35.6590   40.1860   25.2590 N   0  0  0  0  0  0  0  0  0  0  0  0
   39.1630   39.2380   25.1720 C   0  0  0  0  0  0  0  0  0  0  0  0
  1 12  1  0
  1  8  1  0
  3  2  1  0
  4 10  1  0
  4 19  1  0
  4 17  1  0
  5 16  1  0
  6  7  2  0
  6 19  1  0
  8 20  1  0
  9 13  1  0
  9 15  1  0
 11  1  2  0
 13 14  2  0
 13 18  1  0
 13  5  1  0
 15 16  1  0
 16  6  1  0
 17 20  1  0
 17  2  1  0
M  END
$$$$

     RDKit          3D

 10 10  0  0  0  0  0  0  0  0999 V2000
   35.9450   39.7680   22.4260 C   0  0  0  0  0  0  0  0  0  0  0  0
   36.4760   40.8580   22.7020 C   0  0  0  0  0  0  0  0  0  0  0  0
   35.7600   41.4900   23.9440 S   0  0  0  0  0  0  0  0  0  0  0  0
   34.3230   40.8500   24.0770 N   0  0  0  0  0  0  0  0  0  0  0  0
   38.2390   40.6720   20.9480 C   0  0  0  0  0  0  0  0  0  0  0  0
   37.7290   41.5100   22.0890 C   0  0  0  0  0  0  0  0  0  0  0  0
   35.2010   42.7820   23.6690 O   0  0  0  0  0  0  0  0  0  0  0  0
   36.9850   41.3300   25.1570 N   0  0  0  0  0  0  0  0  0  0  0  0
   38.0560   39.2330   21.3780 C   0  0  0  0  0  0  0  0  0  0  0  0
   36.5930   38.9040   21.4880 C   0  0  0  0  0  0  0  0  0  0  0  0
  1  2  2  0
  2  3  1  0
  3  4  1  0
  3  8  1  0
  5  9  1  0
  5  6  1  0
  6  2  1  0
  7  3  1  0
  9 10  1  0
 10  1  1  0
M  END
$$$$

     RDKit          3D

  6  5  0  0  0  0  0  0  0  0999 V2000
   37.4880   39.5430   22.1580 C   0  0  0  0  0  0  0  0  0  0  0  0
   37.3950   41.1180   24.0270 C   0  0  0  0  0  0  0  0  0  0  0  0
   38.1140   38.7380   22.8830 O   0  0  0  0  0  0  0  0  0  0  0  0
   37.7210   40.9900   22.5530 C   0  0  0  0  0  0  0  0  0  0  0  0
   37.0900   42.4320   24.3990 O   0  0  0  0  0  0  0  0  0  0  0  0
   39.0770   41.3540   22.2240 O   0  0  0  0  0  0  0  0  0  0  0  0
  1  4  1  0
  1  3  1  0
  2  5  1  0
  4  2  1  0
  6  4  1  0
M  END
$$$$

     RDKit          3D

 18 19  0  0  0  0  0  0  0  0999 V2000
   39.4080   43.2050   23.2500 C   0  0  0  0  0  0  0  0  0  0  0  0
   38.6610   40.0510   21.8210 N   0  0  0  0  0  0  0  0  0  0  0  0
   36.5720   39.0040   22.9310 C   0  0  0  0  0  0  0  0  0  0  0  0
   36.6070   41.5260   23.2460 C   0  0  0  0  0  0  0  0  0  0  0  0
   33.2730   38.3850   22.9760 C   0  0  0  0  0  0  0  0  0  0  0  0
   36.3720   41.4170   24.7290 C   0  0  0  0  0  0  0  0  0  0  0  0
   40.0930   44.1870   23.0460 C   0  0  0  0  0  0  0  0  0  0  0  0
   35.3590   39.5380   23.6320 N   0  0  0  0  0  0  0  0  0  0  0  0
   40.6270   40.8690   20.9550 N   0  0  0  0  0  0  0  0  0  0  0  0
   31.3250   39.7860   22.5740 C   0  0  0  0  0  0  0  0  0  0  0  0
   39.2250   42.5660   21.7640 C   0  0  0  0  0  0  0  0  0  0  0  0
   35.5730   40.1340   24.9840 C   0  0  0  0  0  0  0  0  0  0  0  0
   31.9000   38.5270   22.7200 C   0  0  0  0  0  0  0  0  0  0  0  0
   34.0940   39.5550   23.1210 C   0  0  0  0  0  0  0  0  0  0  0  0
   32.1260   40.9250   22.5300 C   0  0  0  0  0  0  0  0  0  0  0  0
   37.3680   40.3420   22.6200 C   0  0  0  0  0  0  0  0  0  0  0  0
   39.4770   41.1290   21.4160 C   0  0  0  0  0  0  0  0  0  0  0  0
   33.4790   40.7990   22.8790 C   0  0  0  0  0  0  0  0  0  0  0  0
  2 16  2  3
  3  8  1  0
  4  6  1  0
  5 14  1  0
  6 12  1  0
  7  1  1  0
  8 12  1  0
  9 17  2  0
 10 13  1  0
 11  1  1  0
 13  5  2  0
 14  8  1  0
 15 10  2  0
 15 18  1  0
 16  3  1  0
 16  4  1  0
 17 11  1  0
 17  2  1  0
 18 14  2  0
M  END
$$$$

     RDKit          3D

 13 12  0  0  0  0  0  0  0  0999 V2000
   37.2800   38.6880   24.6310 O   0  0  0  0  0  0  0  0  0  0  0  0
   34.7080   40.0070   24.7060 C   0  0  0  0  0  0  0  0  0  0  0  0
   36.7170   41.1200   22.1500 C   0  0  0  0  0  0  0  0  0  0  0  0
   33.4830   37.8160   23.4000 O   0  0  0  0  0  0  0  0  0  0  0  0
   35.6400   40.6520   25.4070 C   0  0  0  0  0  0  0  0  0  0  0  0
   37.0660   41.6860   24.9500 S   0  0  0  0  0  0  0  0  0  0  0  0
   36.3510   39.8790   22.7610 C   0  0  0  0  0  0  0  0  0  0  0  0
   38.4990   39.2470   23.2070 O   0  0  0  0  0  0  0  0  0  0  0  0
   34.4400   38.2980   22.8190 C   0  0  0  0  0  0  0  0  0  0  0  0
   34.8520   39.8120   23.1890 C   0  0  0  0  0  0  0  0  0  0  0  0
   37.4320   39.2630   23.6110 C   0  0  0  0  0  0  0  0  0  0  0  0
   34.0210   40.7530   22.4410 N   0  0  0  0  0  0  0  0  0  0  0  0
   34.7890   37.8640   21.7080 O   0  0  0  0  0  0  0  0  0  0  0  0
  2  5  2  3
  6  5  1  0
  7  3  1  0
  7 10  1  0
  7 11  1  0
  8 11  2  0
  9 10  1  0
  9  4  1  0
 10 12  1  0
 10  2  1  0
 11  1  1  0
 13  9  2  0
M  END
$$$$

     RDKit          3D

 15 16  0  0  0  0  0  0  0  0999 V2000
   38.1860   42.4150   20.6860 C   0  0  0  0  0  0  0  0  0  0  0  0
   39.1170   43.6500   20.2730 C   0  0  0  0  0  0  0  0  0  0  0  0
   40.2260   41.8180   21.9020 C   0  0  0  0  0  0  0  0  0  0  0  0
   37.7460   39.7030   25.6380 C   0  0  0  0  0  0  0  0  0  0  0  0
   41.7970   41.4860   24.4180 O   0  0  0  0  0  0  0  0  0  0  0  0
   38.9070   41.2690   21.5030 C   0  0  0  0  0  0  0  0  0  0  0  0
   38.4900   38.7500   26.3230 N   0  0  0  0  0  0  0  0  0  0  0  0
   37.3940   38.3990   25.6400 C   0  0  0  0  0  0  0  0  0  0  0  0
   41.2890   39.7840   22.7280 O   0  0  0  0  0  0  0  0  0  0  0  0
   39.5420   40.9520   24.2310 C   0  0  0  0  0  0  0  0  0  0  0  0
   40.7660   41.0080   23.3780 S   0  0  0  0  0  0  0  0  0  0  0  0
   40.9950   41.8030   20.4270 C   0  0  0  0  0  0  0  0  0  0  0  0
   38.6430   40.7990   25.1550 C   0  0  0  0  0  0  0  0  0  0  0  0
   40.2930   43.0030   19.3460 S   0  0  0  0  0  0  0  0  0  0  0  0
   40.4430   43.0150   22.3660 O   0  0  0  0  0  0  0  0  0  0  0  0
  1  6  1  0
  2  1  1  0
  3 15  1  0
  3 11  1  0
  4 13  1  0
  4  8  1  0
  4  7  1  0
  6  3  1  0
  8  7  1  0
  9 11  2  0
 10 13  1  0
 11 10  1  0
 11  5  2  0
 12  3  1  0
 14  2  1  0
 14 12  1  0
M  END
$$$$
