
     RDKit          3D

 20 21  0  0  0  0  0  0  0  0999 V2000
   40.0480   33.4310   28.0270 C   0  0  0  0  0  0  0  0  0  0  0  0
   42.2220   34.7810   26.4420 N   0  0  0  0  0  0  0  0  0  0  0  0
   41.2290   37.5820   26.0400 O   0  0  0  0  0  0  0  0  0  0  0  0
   35.1750   37.5670   21.1790 C   0  0  0  0  0  0  0  0  0  0  0  0
   39.6160   36.3100   25.0220 C   0  0  0  0  0  0  0  0  0  0  0  0
   39.2990   34.9200   24.4560 C   0  0  0  0  0  0  0  0  0  0  0  0
   40.9980   35.3930   26.9900 C   0  0  0  0  0  0  0  0  0  0  0  0
   39.8020   33.9110   25.3990 N   0  0  0  0  0  0  0  0  0  0  0  0
   43.1190   34.5420   25.5410 C   0  0  0  0  0  0  0  0  0  0  0  0
   37.3480   36.0180   23.3540 C   0  0  0  0  0  0  0  0  0  0  0  0
   33.8340   37.5900   20.9190 C   0  0  0  0  0  0  0  0  0  0  0  0
   39.8870   34.3830   26.8370 C   0  0  0  0  0  0  0  0  0  0  0  0
   37.5920   37.1360   24.0820 C   0  0  0  0  0  0  0  0  0  0  0  0
   36.3320   37.5190   20.1690 C   0  0  0  0  0  0  0  0  0  0  0  0
   35.9960   36.0100   22.7360 C   0  0  0  0  0  0  0  0  0  0  0  0
   38.2190   34.8230   23.4590 C   0  0  0  0  0  0  0  0  0  0  0  0
   38.1120   33.8100   22.7310 O   0  0  0  0  0  0  0  0  0  0  0  0
   38.7950   37.3150   24.7170 N   0  0  0  0  0  0  0  0  0  0  0  0
   40.6850   36.5370   26.0460 C   0  0  0  0  0  0  0  0  0  0  0  0
   35.5420   37.4830   22.6230 C   0  0  0  0  0  0  0  0  0  0  0  0
  3 19  2  0
  4 20  1  0
  5 19  1  0
  6 16  1  0
  6  5  1  0
  6  8  1  0
  7  2  1  0
  8 12  1  0
  9  2  3  0
 10 16  1  0
 10 13  2  0
 11  4  2  0
 12  7  1  0
 12  1  1  0
 13 18  1  0
 14  4  1  0
 15 10  1  0
 17 16  2  0
 18  5  2  0
 19  7  1  0
 20 15  1  0
M  END
$$$$

     RDKit          3D

  9  8  0  0  0  0  0  0  0  0999 V2000
   41.7190   36.5760   26.3810 N   0  0  0  0  0  0  0  0  0  0  0  0
   40.3600   33.2600   27.7180 C   0  0  0  0  0  0  0  0  0  0  0  0
   41.3340   38.7490   26.0780 O   0  0  0  0  0  0  0  0  0  0  0  0
   42.9800   38.6850   26.4820 C   0  0  0  0  0  0  0  0  0  0  0  0
   43.8930   36.5440   25.7020 O   0  0  0  0  0  0  0  0  0  0  0  0
   40.3460   34.4040   25.3220 N   0  0  0  0  0  0  0  0  0  0  0  0
   41.6640   35.3000   27.1180 C   0  0  0  0  0  0  0  0  0  0  0  0
   42.8540   37.2240   26.0970 C   0  0  0  0  0  0  0  0  0  0  0  0
   40.4070   34.4910   26.7980 C   0  0  0  0  0  0  0  0  0  0  0  0
  1  7  1  0
  3  4  1  0
  5  8  2  0
  6  9  1  0
  8  1  1  0
  8  4  1  0
  9  7  1  0
  9  2  1  0
M  END
$$$$

     RDKit          3D

 15 15  0  0  0  0  0  0  0  0999 V2000
   39.8480   37.3380   24.7080 O   0  0  0  0  0  0  0  0  0  0  0  0
   40.4490   36.3280   23.7270 S   0  0  0  0  0  0  0  0  0  0  0  0
   40.8820   34.6950   27.4000 C   0  0  0  0  0  0  0  0  0  0  0  0
   39.5570   35.1910   23.6100 O   0  0  0  0  0  0  0  0  0  0  0  0
   43.1460   34.7960   24.4600 C   0  0  0  0  0  0  0  0  0  0  0  0
   39.6080   33.8770   27.6270 C   0  0  0  0  0  0  0  0  0  0  0  0
   41.9220   35.6790   24.5610 C   0  0  0  0  0  0  0  0  0  0  0  0
   41.9800   33.7130   27.6890 N   0  0  0  0  0  0  0  0  0  0  0  0
   41.6410   36.4180   25.7380 N   0  0  0  0  0  0  0  0  0  0  0  0
   41.0810   35.1410   25.9000 C   0  0  0  0  0  0  0  0  0  0  0  0
   42.5800   34.5580   22.0270 N   0  0  0  0  0  0  0  0  0  0  0  0
   42.8170   38.9660   25.1460 I   0  0  0  0  0  0  0  0  0  0  0  0
   40.8710   37.1290   22.5930 O   0  0  0  0  0  0  0  0  0  0  0  0
   42.3580   37.5740   26.1180 C   0  0  0  0  0  0  0  0  0  0  0  0
   43.6070   35.0370   23.0100 C   0  0  0  0  0  0  0  0  0  0  0  0
  2  7  1  0
  2  1  1  0
  3  6  1  0
  3  8  1  0
  4  2  1  0
  7  5  1  0
  7  9  1  0
  7 10  1  0
  9 10  1  0
  9 14  1  0
 10  3  1  0
 11 15  1  0
 12 14  1  0
 13  2  1  0
 15  5  1  0
M  END
$$$$

     RDKit          3D

  8  8  0  0  0  0  0  0  0  0999 V2000
   40.5740   35.3810   24.7270 C   0  0  0  0  0  0  0  0  0  0  0  0
   41.4700   35.8800   27.4080 C   0  0  0  0  0  0  0  0  0  0  0  0
   40.7540   34.2970   25.6680 N   0  0  0  0  0  0  0  0  0  0  0  0
   40.5820   35.1520   23.4440 O   0  0  0  0  0  0  0  0  0  0  0  0
   40.7170   33.4730   28.0870 C   0  0  0  0  0  0  0  0  0  0  0  0
   41.0740   37.0190   26.5880 C   0  0  0  0  0  0  0  0  0  0  0  0
   40.4620   36.8240   25.2120 C   0  0  0  0  0  0  0  0  0  0  0  0
   40.8740   34.5670   27.0780 C   0  0  0  0  0  0  0  0  0  0  0  0
  1  7  1  0
  1  3  1  0
  3  8  1  0
  4  1  2  0
  6  2  1  0
  7  6  1  0
  8  2  1  0
  8  5  1  0
M  END
$$$$

     RDKit          3D

 21 22  0  0  0  0  0  0  0  0999 V2000
   39.1670   35.0970   28.1140 O   0  0  0  0  0  0  0  0  0  0  0  0
   42.0730   36.0400   25.5990 C   0  0  0  0  0  0  0  0  0  0  0  0
   37.0130   37.2640   23.4760 N   0  0  0  0  0  0  0  0  0  0  0  0
   34.7690   38.2160   23.0940 C   0  0  0  0  0  0  0  0  0  0  0  0
   36.0270   34.0030   21.5630 F   0  0  0  0  0  0  0  0  0  0  0  0
   37.9200   36.2680   23.4100 C   0  0  0  0  0  0  0  0  0  0  0  0
   38.3180   34.0140   22.8830 F   0  0  0  0  0  0  0  0  0  0  0  0
   40.8970   34.4560   26.6410 C   0  0  0  0  0  0  0  0  0  0  0  0
   35.4340   36.0260   22.3220 N   0  0  0  0  0  0  0  0  0  0  0  0
   43.7220   34.2930   26.0710 C   0  0  0  0  0  0  0  0  0  0  0  0
   36.3390   35.0760   22.2120 C   0  0  0  0  0  0  0  0  0  0  0  0
   37.5230   35.1150   22.8090 C   0  0  0  0  0  0  0  0  0  0  0  0
   39.9450   37.3550   23.9180 O   0  0  0  0  0  0  0  0  0  0  0  0
   39.2720   36.3130   24.0070 C   0  0  0  0  0  0  0  0  0  0  0  0
   39.6910   35.2350   24.6480 N   0  0  0  0  0  0  0  0  0  0  0  0
   42.9390   35.4220   26.6750 C   0  0  0  0  0  0  0  0  0  0  0  0
   40.6470   35.5560   25.7750 C   0  0  0  0  0  0  0  0  0  0  0  0
   39.4840   32.8930   27.6630 N   0  0  0  0  0  0  0  0  0  0  0  0
   41.9870   34.8740   27.6120 N   0  0  0  0  0  0  0  0  0  0  0  0
   35.7970   37.1190   22.9470 C   0  0  0  0  0  0  0  0  0  0  0  0
   39.7730   34.1550   27.4980 C   0  0  0  0  0  0  0  0  0  0  0  0
  2 17  1  0
  2 16  1  0
  5 11  1  0
  6  3  1  0
  6 14  1  0
  8 21  1  0
  8 19  1  0
  9 20  1  0
 11  9  2  0
 11 12  1  0
 12  7  1  0
 12  6  2  0
 13 14  2  0
 14 15  1  0
 16 10  1  0
 16 19  1  0
 17 15  1  0
 17  8  1  0
 20  4  1  0
 20  3  2  0
 21 18  1  0
 21  1  2  0
M  END
$$$$

     RDKit          3D

  3  2  0  0  0  0  0  0  0  0999 V2000
   40.5860   38.2520   26.1670 C   0  0  0  0  0  0  0  0  0  0  0  0
   41.0900   36.7740   26.4730 C   0  0  0  0  0  0  0  0  0  0  0  0
   40.5430   35.9140   25.4740 O   0  0  0  0  0  0  0  0  0  0  0  0
  1  2  1  0
  3  2  1  0
M  END
$$$$

     RDKit          3D

  9  8  0  0  0  0  0  0  0  0999 V2000
   39.6410   36.2420   25.4070 F   0  0  0  0  0  0  0  0  0  0  0  0
   40.9770   36.3680   25.5390 C   0  0  0  0  0  0  0  0  0  0  0  0
   41.2810   37.7210   25.8230 O   0  0  0  0  0  0  0  0  0  0  0  0
   40.2050   34.5960   27.1850 C   0  0  0  0  0  0  0  0  0  0  0  0
   41.6760   35.9350   24.2430 C   0  0  0  0  0  0  0  0  0  0  0  0
   42.6530   34.6730   26.6060 N   0  0  0  0  0  0  0  0  0  0  0  0
   40.7280   33.3510   27.7530 N   0  0  0  0  0  0  0  0  0  0  0  0
   41.4080   35.4920   26.7440 C   0  0  0  0  0  0  0  0  0  0  0  0
   43.0320   36.1770   24.1890 O   0  0  0  0  0  0  0  0  0  0  0  0
  2  1  1  0
  2  3  1  0
  2  8  1  0
  4  7  1  0
  5  2  1  0
  8  6  1  0
  8  4  1  0
  9  5  1  0
M  END
$$$$

     RDKit          3D

 21 22  0  0  0  0  0  0  0  0999 V2000
   42.0540   35.9790   20.4710 I   0  0  0  0  0  0  0  0  0  0  0  0
   40.5880   32.6250   28.0440 C   0  0  0  0  0  0  0  0  0  0  0  0
   39.2290   36.1230   21.3400 C   0  0  0  0  0  0  0  0  0  0  0  0
   40.0580   33.8850   28.4080 C   0  0  0  0  0  0  0  0  0  0  0  0
   39.9200   35.6990   24.1070 C   0  0  0  0  0  0  0  0  0  0  0  0
   38.6340   35.2270   23.5460 C   0  0  0  0  0  0  0  0  0  0  0  0
   41.0340   38.1080   25.7500 O   0  0  0  0  0  0  0  0  0  0  0  0
   42.7630   35.9780   27.5890 Br  0  0  0  0  0  0  0  0  0  0  0  0
   39.3600   33.5850   25.9820 O   0  0  0  0  0  0  0  0  0  0  0  0
   40.5250   37.0830   26.4840 C   0  0  0  0  0  0  0  0  0  0  0  0
   40.5610   36.5860   21.8210 C   0  0  0  0  0  0  0  0  0  0  0  0
   40.8350   34.1800   27.4790 N   0  0  0  0  0  0  0  0  0  0  0  0
   38.8400   37.5450   28.1740 C   0  0  0  0  0  0  0  0  0  0  0  0
   40.7090   36.1280   23.1830 C   0  0  0  0  0  0  0  0  0  0  0  0
   40.1170   34.5010   26.3310 C   0  0  0  0  0  0  0  0  0  0  0  0
   40.3200   35.7650   25.5670 C   0  0  0  0  0  0  0  0  0  0  0  0
   40.9040   38.1080   21.9070 C   0  0  0  0  0  0  0  0  0  0  0  0
   39.3170   37.2010   27.0740 N   0  0  0  0  0  0  0  0  0  0  0  0
   41.3310   37.2340   27.6950 C   0  0  0  0  0  0  0  0  0  0  0  0
   38.3110   35.4110   22.1630 C   0  0  0  0  0  0  0  0  0  0  0  0
   39.2710   34.4140   29.0850 O   0  0  0  0  0  0  0  0  0  0  0  0
  1 11  1  0
  2  4  1  0
  3 11  1  0
  3 20  2  0
  4 21  2  0
  5 16  1  0
  6  5  2  0
  8 19  1  0
  9 15  2  0
 10  7  1  0
 10 18  1  0
 10 19  1  0
 11 17  1  0
 11 14  1  0
 12  2  1  0
 12  4  1  0
 14  5  1  0
 15 12  1  0
 16 15  1  0
 16 10  1  0
 18 13  2  0
 20  6  1  0
M  END
$$$$

     RDKit          3D

 12 12  0  0  0  0  0  0  0  0999 V2000
   39.0010   36.8390   24.5540 O   0  0  0  0  0  0  0  0  0  0  0  0
   44.0370   34.4230   23.3540 S   0  0  0  0  0  0  0  0  0  0  0  0
   40.7160   36.4430   26.0510 C   0  0  0  0  0  0  0  0  0  0  0  0
   41.0650   36.5990   23.5100 O   0  0  0  0  0  0  0  0  0  0  0  0
   41.9340   37.4150   26.0780 N   0  0  0  0  0  0  0  0  0  0  0  0
   42.4660   36.1850   27.8540 O   0  0  0  0  0  0  0  0  0  0  0  0
   42.0250   36.0670   26.4500 C   0  0  0  0  0  0  0  0  0  0  0  0
   44.5930   33.3600   24.2280 O   0  0  0  0  0  0  0  0  0  0  0  0
   42.9850   35.5600   24.3850 C   0  0  0  0  0  0  0  0  0  0  0  0
   42.5810   34.9110   25.6800 C   0  0  0  0  0  0  0  0  0  0  0  0
   40.2040   36.6190   24.7390 C   0  0  0  0  0  0  0  0  0  0  0  0
   39.7260   35.4340   26.5880 O   0  0  0  0  0  0  0  0  0  0  0  0
  1 11  1  0
  2  8  2  0
  2  9  1  0
  3  5  1  0
  3  7  1  0
  3 12  1  0
  4 11  2  0
  5  7  1  0
  7  6  1  0
  9 10  1  0
 10  7  1  0
 11  3  1  0
M  END
$$$$

     RDKit          3D

 13 13  0  0  0  0  0  0  0  0999 V2000
   42.6040   36.3560   26.1370 C   0  0  0  0  0  0  0  0  0  0  0  0
   40.8570   36.1900   24.7790 C   0  0  0  0  0  0  0  0  0  0  0  0
   40.2900   34.7530   25.0730 C   0  0  0  0  0  0  0  0  0  0  0  0
   40.0890   34.4100   26.6270 C   0  0  0  0  0  0  0  0  0  0  0  0
   42.4270   34.9530   26.5810 O   0  0  0  0  0  0  0  0  0  0  0  0
   41.2930   34.9160   27.4490 C   0  0  0  0  0  0  0  0  0  0  0  0
   41.3590   39.3250   25.9860 O   0  0  0  0  0  0  0  0  0  0  0  0
   39.8840   33.2100   27.4170 O   0  0  0  0  0  0  0  0  0  0  0  0
   41.3400   36.9380   26.0250 C   0  0  0  0  0  0  0  0  0  0  0  0
   42.0590   35.8990   23.9230 O   0  0  0  0  0  0  0  0  0  0  0  0
   39.1460   34.3490   24.2360 O   0  0  0  0  0  0  0  0  0  0  0  0
   44.8100   36.5750   25.4960 I   0  0  0  0  0  0  0  0  0  0  0  0
   41.8770   38.3550   25.6370 C   0  0  0  0  0  0  0  0  0  0  0  0
  1 12  1  0
  1  5  1  0
  2 10  1  0
  2  3  1  0
  2  9  1  0
  3 11  1  0
  3  4  1  0
  4  8  1  0
  4  6  1  0
  5  6  1  0
  9 13  1  0
  9  1  1  0
 13  7  2  0
M  END
$$$$

     RDKit          3D

 16 16  0  0  0  0  0  0  0  0999 V2000
   38.1730   36.3230   23.6920 O   0  0  0  0  0  0  0  0  0  0  0  0
   39.1200   34.0580   24.0980 O   0  0  0  0  0  0  0  0  0  0  0  0
   42.9360   37.5440   23.1170 O   0  0  0  0  0  0  0  0  0  0  0  0
   41.0920   35.1650   26.2350 C   0  0  0  0  0  0  0  0  0  0  0  0
   39.7670   35.5860   25.8010 O   0  0  0  0  0  0  0  0  0  0  0  0
   41.0520   37.5260   24.5650 C   0  0  0  0  0  0  0  0  0  0  0  0
   42.4500   38.1190   24.3200 C   0  0  0  0  0  0  0  0  0  0  0  0
   41.4620   36.2210   27.1460 N   0  0  0  0  0  0  0  0  0  0  0  0
   39.3870   35.5620   24.1850 S   0  0  0  0  0  0  0  0  0  0  0  0
   42.0160   33.2880   27.4510 O   0  0  0  0  0  0  0  0  0  0  0  0
   41.0740   34.0520   27.2370 C   0  0  0  0  0  0  0  0  0  0  0  0
   40.6720   36.4960   23.6210 O   0  0  0  0  0  0  0  0  0  0  0  0
   42.3060   34.9990   25.3190 C   0  0  0  0  0  0  0  0  0  0  0  0
   43.5050   35.5750   26.0590 C   0  0  0  0  0  0  0  0  0  0  0  0
   42.9300   36.2240   27.3140 C   0  0  0  0  0  0  0  0  0  0  0  0
   39.8660   33.9860   28.1250 C   0  0  0  0  0  0  0  0  0  0  0  0
  1  9  1  0
  2  9  1  0
  3  7  1  0
  4  5  1  0
  4  8  1  0
  4 11  1  0
  7  6  1  0
  8 15  1  0
  9  5  1  0
 11 10  2  0
 11 16  1  0
 12  9  1  0
 12  6  1  0
 13 14  1  0
 13  4  1  0
 14 15  1  0
M  END
$$$$

     RDKit          3D

 12 12  0  0  0  0  0  0  0  0999 V2000
   42.6040   37.8690   26.4440 O   0  0  0  0  0  0  0  0  0  0  0  0
   39.4580   37.0790   25.9850 O   0  0  0  0  0  0  0  0  0  0  0  0
   42.8260   35.5290   26.8800 C   0  0  0  0  0  0  0  0  0  0  0  0
   42.0570   34.3020   27.4100 C   0  0  0  0  0  0  0  0  0  0  0  0
   40.7380   36.4750   25.7920 C   0  0  0  0  0  0  0  0  0  0  0  0
   44.2680   36.1440   24.9880 C   0  0  0  0  0  0  0  0  0  0  0  0
   40.4230   34.9660   25.7490 C   0  0  0  0  0  0  0  0  0  0  0  0
   39.3100   34.7750   25.1190 C   0  0  0  0  0  0  0  0  0  0  0  0
   40.5560   34.4830   27.1870 C   0  0  0  0  0  0  0  0  0  0  0  0
   38.5190   34.4430   24.4550 O   0  0  0  0  0  0  0  0  0  0  0  0
   43.3300   35.1990   25.5610 O   0  0  0  0  0  0  0  0  0  0  0  0
   41.8310   36.7040   26.8410 C   0  0  0  0  0  0  0  0  0  0  0  0
  3 11  1  0
  3  4  1  0
  5  2  1  0
  5 12  1  0
  6 11  1  0
  7  8  1  0
  7  5  1  0
  7  9  1  0
  9  4  1  0
 10  8  1  0
 12  1  1  0
 12  3  1  0
M  END
$$$$

     RDKit          3D

 12 12  0  0  0  0  0  0  0  0999 V2000
   43.3160   34.9090   23.9690 C   0  0  0  0  0  0  0  0  0  0  0  0
   41.2270   36.9770   26.4960 C   0  0  0  0  0  0  0  0  0  0  0  0
   42.2660   35.9930   25.9080 C   0  0  0  0  0  0  0  0  0  0  0  0
   42.2030   37.0850   23.5360 C   0  0  0  0  0  0  0  0  0  0  0  0
   40.3050   34.5770   25.9270 C   0  0  0  0  0  0  0  0  0  0  0  0
   40.6650   34.4790   27.2970 C   0  0  0  0  0  0  0  0  0  0  0  0
   41.8820   34.5920   26.3320 C   0  0  0  0  0  0  0  0  0  0  0  0
   41.3260   38.1390   26.2910 O   0  0  0  0  0  0  0  0  0  0  0  0
   40.4740   33.2590   27.9960 O   0  0  0  0  0  0  0  0  0  0  0  0
   42.5840   36.0340   24.4820 N   0  0  0  0  0  0  0  0  0  0  0  0
   39.9340   33.8030   24.8250 O   0  0  0  0  0  0  0  0  0  0  0  0
   43.1150   34.3260   27.3120 N   0  0  0  0  0  0  0  0  0  0  0  0
  1 10  1  0
  3  7  1  0
  3  2  1  0
  4 10  1  0
  5 11  1  0
  5  7  1  0
  5  6  1  0
  6  9  1  0
  7  6  1  0
  7 12  1  0
  8  2  2  0
 10  3  1  0
M  END
$$$$

     RDKit          3D

 10  9  0  0  0  0  0  0  0  0999 V2000
   40.8610   35.4940   26.0840 N   0  0  0  0  0  0  0  0  0  0  0  0
   42.7290   35.6110   27.4910 C   0  0  0  0  0  0  0  0  0  0  0  0
   39.6490   35.8690   25.5120 C   0  0  0  0  0  0  0  0  0  0  0  0
   43.0440   34.4690   26.4160 C   0  0  0  0  0  0  0  0  0  0  0  0
   38.9460   36.6920   26.0470 O   0  0  0  0  0  0  0  0  0  0  0  0
   40.4820   34.8100   23.4910 O   0  0  0  0  0  0  0  0  0  0  0  0
   41.8690   34.5650   25.4920 C   0  0  0  0  0  0  0  0  0  0  0  0
   39.3170   35.2870   24.1330 C   0  0  0  0  0  0  0  0  0  0  0  0
   43.0540   36.6870   27.0950 C   0  0  0  0  0  0  0  0  0  0  0  0
   44.4670   35.0700   25.9840 N   0  0  0  0  0  0  0  0  0  0  0  0
  3  5  2  0
  3  1  1  0
  4 10  1  0
  4  2  1  0
  6  8  1  0
  7  1  1  0
  7  4  1  0
  8  3  1  0
  9  2  1  0
M  END
$$$$

     RDKit          3D

  4  3  0  0  0  0  0  0  0  0999 V2000
   39.8890   36.2200   25.7080 C   0  0  0  0  0  0  0  0  0  0  0  0
   40.6930   37.2670   25.5950 N   0  0  0  0  0  0  0  0  0  0  0  0
   38.7720   36.2720   25.1690 O   0  0  0  0  0  0  0  0  0  0  0  0
   40.3520   35.1700   26.4630 N   0  0  0  0  0  0  0  0  0  0  0  0
  1  4  1  0
  2  1  1  0
  3  1  2  0
M  END
$$$$

     RDKit          3D

 14 14  0  0  0  0  0  0  0  0999 V2000
   39.4020   34.9910   26.8930 C   0  0  0  0  0  0  0  0  0  0  0  0
   40.2910   37.6450   20.3610 C   0  0  0  0  0  0  0  0  0  0  0  0
   38.3580   34.3710   22.7970 O   0  0  0  0  0  0  0  0  0  0  0  0
   41.8560   34.1970   26.6490 C   0  0  0  0  0  0  0  0  0  0  0  0
   40.5520   36.1460   22.3640 C   0  0  0  0  0  0  0  0  0  0  0  0
   38.7060   36.4310   24.0020 C   0  0  0  0  0  0  0  0  0  0  0  0
   41.1970   33.8210   27.7900 C   0  0  0  0  0  0  0  0  0  0  0  0
   39.8840   34.2140   27.9260 C   0  0  0  0  0  0  0  0  0  0  0  0
   37.7630   35.6250   23.1290 C   0  0  0  0  0  0  0  0  0  0  0  0
   41.4070   34.9530   25.6710 N   0  0  0  0  0  0  0  0  0  0  0  0
   39.7780   36.9350   23.4540 C   0  0  0  0  0  0  0  0  0  0  0  0
   40.0570   35.2940   25.7720 C   0  0  0  0  0  0  0  0  0  0  0  0
   41.2830   37.1010   21.4420 C   0  0  0  0  0  0  0  0  0  0  0  0
   39.4900   36.0110   24.6870 C   0  0  0  0  0  0  0  0  0  0  0  0
  1  8  1  0
  2 13  1  0
  3  9  1  0
  4  7  1  0
  5 11  1  0
  6  9  1  0
  6 14  1  0
  7  8  2  0
 10 12  1  0
 10  4  2  0
 11  6  1  0
 12  1  2  0
 13  5  1  0
 14 12  1  0
M  END
$$$$

     RDKit          3D

 16 16  0  0  0  0  0  0  0  0999 V2000
   42.4090   36.0450   23.8010 C   0  0  0  0  0  0  0  0  0  0  0  0
   41.9760   36.3740   25.3850 C   0  0  0  0  0  0  0  0  0  0  0  0
   39.4380   35.7310   24.8920 C   0  0  0  0  0  0  0  0  0  0  0  0
   40.9840   36.7840   26.5900 C   0  0  0  0  0  0  0  0  0  0  0  0
   40.2040   36.4710   22.7890 O   0  0  0  0  0  0  0  0  0  0  0  0
   41.4910   36.4710   22.0940 P   0  0  0  0  0  0  0  0  0  0  0  0
   40.2100   34.4570   25.4000 C   0  0  0  0  0  0  0  0  0  0  0  0
   40.1860   32.9920   28.0610 C   0  0  0  0  0  0  0  0  0  0  0  0
   43.0760   35.4790   25.9510 C   0  0  0  0  0  0  0  0  0  0  0  0
   42.1790   37.8250   21.7110 O   0  0  0  0  0  0  0  0  0  0  0  0
   39.9260   33.7870   26.8230 N   0  0  0  0  0  0  0  0  0  0  0  0
   39.8780   36.9990   24.1300 C   0  0  0  0  0  0  0  0  0  0  0  0
   42.5170   34.9470   27.3650 C   0  0  0  0  0  0  0  0  0  0  0  0
   43.8080   36.3300   23.2010 C   0  0  0  0  0  0  0  0  0  0  0  0
   41.7950   35.2330   21.3240 O   0  0  0  0  0  0  0  0  0  0  0  0
   41.1540   35.6150   27.4840 C   0  0  0  0  0  0  0  0  0  0  0  0
  1 14  1  0
  1  2  1  0
  2  9  1  0
  2  4  1  0
  3  7  1  0
  4 16  1  0
  5 12  1  0
  6 15  2  0
  6  5  1  0
  6  1  1  0
  7 11  1  0
  9 13  1  0
 10  6  1  0
 11  8  3  0
 12  3  1  0
 13 16  1  0
M  END
$$$$

     RDKit          3D

 32 34  0  0  0  0  0  0  0  0999 V2000
   34.5080   34.8450   23.8350 N   0  0  0  0  0  0  0  0  0  0  0  0
   28.7440   34.2100   28.0470 O   0  0  0  0  0  0  0  0  0  0  0  0
   38.2320   34.3660   24.7110 C   0  0  0  0  0  0  0  0  0  0  0  0
   32.9850   34.8640   24.2470 C   0  0  0  0  0  0  0  0  0  0  0  0
   29.3630   33.5990   27.3820 C   0  0  0  0  0  0  0  0  0  0  0  0
   41.3480   34.2360   26.6790 N   0  0  0  0  0  0  0  0  0  0  0  0
   39.8200   36.6700   24.2000 C   0  0  0  0  0  0  0  0  0  0  0  0
   32.5720   34.1290   25.6090 C   0  0  0  0  0  0  0  0  0  0  0  0
   39.1760   34.6400   25.2780 C   0  0  0  0  0  0  0  0  0  0  0  0
   45.6590   37.1610   26.4690 C   0  0  0  0  0  0  0  0  0  0  0  0
   45.7270   39.0490   27.9330 C   0  0  0  0  0  0  0  0  0  0  0  0
   37.5130   36.0520   23.6000 C   0  0  0  0  0  0  0  0  0  0  0  0
   42.8180   34.4800   27.0090 C   0  0  0  0  0  0  0  0  0  0  0  0
   40.6510   33.6760   27.8970 C   0  0  0  0  0  0  0  0  0  0  0  0
   39.9890   35.5930   25.1940 C   0  0  0  0  0  0  0  0  0  0  0  0
   35.2510   35.2090   22.7310 C   0  0  0  0  0  0  0  0  0  0  0  0
   43.5240   38.2370   28.0560 C   0  0  0  0  0  0  0  0  0  0  0  0
   43.6700   36.8570   27.5280 N   0  0  0  0  0  0  0  0  0  0  0  0
   29.3470   31.3920   28.3180 C   0  0  0  0  0  0  0  0  0  0  0  0
   31.1990   31.7040   26.7370 C   0  0  0  0  0  0  0  0  0  0  0  0
   30.6020   33.2420   26.5680 C   0  0  0  0  0  0  0  0  0  0  0  0
   44.4510   36.3630   26.5740 C   0  0  0  0  0  0  0  0  0  0  0  0
   28.6140   32.3220   27.3430 O   0  0  0  0  0  0  0  0  0  0  0  0
   37.3390   34.8110   24.0330 C   0  0  0  0  0  0  0  0  0  0  0  0
   44.7280   38.4790   28.9990 C   0  0  0  0  0  0  0  0  0  0  0  0
   36.1820   36.4300   22.8610 C   0  0  0  0  0  0  0  0  0  0  0  0
   46.2390   37.8240   27.4280 O   0  0  0  0  0  0  0  0  0  0  0  0
   40.9510   35.4640   26.1300 O   0  0  0  0  0  0  0  0  0  0  0  0
   42.6170   35.8350   27.6670 C   0  0  0  0  0  0  0  0  0  0  0  0
   38.7150   36.7130   23.4570 C   0  0  0  0  0  0  0  0  0  0  0  0
   30.2250   30.6680   27.3600 C   0  0  0  0  0  0  0  0  0  0  0  0
   31.1530   34.1490   25.6500 C   0  0  0  0  0  0  0  0  0  0  0  0
  1  4  2  3
  3  9  1  0
  4  8  1  0
  5  2  2  0
  6 13  1  0
  6 14  1  0
  7 15  2  0
  8 32  1  0
 10 22  1  0
 10 27  1  0
 11 25  1  0
 12 24  1  0
 13 29  1  0
 15  9  1  0
 15 28  1  0
 16 26  1  0
 16  1  1  0
 17 25  1  0
 18 29  1  0
 18 17  1  0
 20 31  1  0
 21 32  1  0
 21 20  1  0
 21  5  1  0
 22 18  1  0
 23  5  1  0
 23 19  1  0
 24  3  2  0
 26 12  1  0
 27 11  1  0
 28  6  1  0
 30 12  2  0
 30  7  1  0
 31 19  1  0
M  END
$$$$

     RDKit          3D

 12 12  0  0  0  0  0  0  0  0999 V2000
   43.1060   35.2400   26.5670 C   0  0  0  0  0  0  0  0  0  0  0  0
   44.9780   35.4390   24.8820 C   0  0  0  0  0  0  0  0  0  0  0  0
   43.8260   35.9180   25.6090 C   0  0  0  0  0  0  0  0  0  0  0  0
   43.9470   34.2590   27.2380 C   0  0  0  0  0  0  0  0  0  0  0  0
   41.5900   35.5260   26.6760 C   0  0  0  0  0  0  0  0  0  0  0  0
   40.8700   35.9930   25.3340 C   0  0  0  0  0  0  0  0  0  0  0  0
   41.4490   36.7630   27.0810 C   0  0  0  0  0  0  0  0  0  0  0  0
   40.8290   34.3340   27.2140 C   0  0  0  0  0  0  0  0  0  0  0  0
   45.7630   34.6370   25.6730 C   0  0  0  0  0  0  0  0  0  0  0  0
   39.9630   36.8250   25.5610 O   0  0  0  0  0  0  0  0  0  0  0  0
   45.2900   34.0990   26.8820 C   0  0  0  0  0  0  0  0  0  0  0  0
   40.9730   35.1700   24.3180 O   0  0  0  0  0  0  0  0  0  0  0  0
  1  5  1  0
  1  4  2  0
  2  3  1  0
  2  9  1  0
  3  1  1  0
  5  7  1  0
  5  8  1  0
  6 10  1  0
  6  5  1  0
  9 11  2  0
 11  4  1  0
 12  6  2  0
M  END
$$$$

     RDKit          3D

  5  4  0  0  0  0  0  0  0  0999 V2000
   39.2810   34.4760   24.3450 O   0  0  0  0  0  0  0  0  0  0  0  0
   39.1150   36.4440   25.5410 O   0  0  0  0  0  0  0  0  0  0  0  0
   40.1330   35.4270   25.0900 P   0  0  0  0  0  0  0  0  0  0  0  0
   41.3760   36.0230   24.4170 O   0  0  0  0  0  0  0  0  0  0  0  0
   40.6860   34.5850   26.3850 O   0  0  0  0  0  0  0  0  0  0  0  0
  1  3  2  0
  3  2  1  0
  3  5  1  0
  4  3  1  0
M  END
$$$$
