
     RDKit          3D

 13 14  0  0  0  0  0  0  0  0999 V2000
   39.4150   41.6220   26.7240 O   0  0  0  0  0  0  0  0  0  0  0  0
   41.5850   38.4210   31.0640 O   0  0  0  0  0  0  0  0  0  0  0  0
   42.4030   40.7910   30.7200 O   0  0  0  0  0  0  0  0  0  0  0  0
   37.7940   41.3740   28.6860 O   0  0  0  0  0  0  0  0  0  0  0  0
   39.3410   42.1170   32.6240 O   0  0  0  0  0  0  0  0  0  0  0  0
   42.1990   42.0590   32.7360 O   0  0  0  0  0  0  0  0  0  0  0  0
   38.9590   40.7870   27.9430 P   0  0  0  0  0  0  0  0  0  0  0  0
   41.5760   40.9550   32.0300 C   0  0  0  0  0  0  0  0  0  0  0  0
   41.4370   39.7250   30.5850 C   0  0  0  0  0  0  0  0  0  0  0  0
   39.9730   40.5320   29.1530 N   0  0  0  0  0  0  0  0  0  0  0  0
   40.2150   41.5180   31.5890 C   0  0  0  0  0  0  0  0  0  0  0  0
   39.8100   40.1710   30.6980 C   0  0  0  0  0  0  0  0  0  0  0  0
   38.5610   39.3980   27.2920 O   0  0  0  0  0  0  0  0  0  0  0  0
  1  7  2  0
  3  8  1  0
  7  4  1  0
  7 10  1  0
  8  6  1  0
  9 12  1  0
  9  3  1  0
  9  2  1  0
  9  8  1  0
 11  8  1  0
 11  5  1  0
 12 10  1  0
 12 11  1  0
 13  7  1  0
M  END
$$$$

     RDKit          3D

 23 26  0  0  0  0  0  0  0  0999 V2000
   41.3590   41.5410   30.8680 P   0  0  0  0  0  0  0  0  0  0  0  0
   40.2770   41.1960   29.5040 N   0  0  0  0  0  0  0  0  0  0  0  0
   40.3180   39.0650   31.0590 C   0  0  0  0  0  0  0  0  0  0  0  0
   40.5750   42.3370   32.0420 O   0  0  0  0  0  0  0  0  0  0  0  0
   32.5430   43.9410   26.0110 O   0  0  0  0  0  0  0  0  0  0  0  0
   39.9650   39.9080   29.9060 C   0  0  0  0  0  0  0  0  0  0  0  0
   40.3730   37.6970   31.6530 C   0  0  0  0  0  0  0  0  0  0  0  0
   39.2320   41.3640   28.9120 C   0  0  0  0  0  0  0  0  0  0  0  0
   42.1480   42.1950   29.7420 O   0  0  0  0  0  0  0  0  0  0  0  0
   32.6210   43.0090   28.0640 N   0  0  0  0  0  0  0  0  0  0  0  0
   34.8740   42.0310   27.3380 C   0  0  0  0  0  0  0  0  0  0  0  0
   38.1830   40.7880   27.1180 C   0  0  0  0  0  0  0  0  0  0  0  0
   38.1290   39.8560   26.1300 O   0  0  0  0  0  0  0  0  0  0  0  0
   42.1690   39.7630   32.6960 N   0  0  0  0  0  0  0  0  0  0  0  0
   38.7890   40.0360   28.1740 C   0  0  0  0  0  0  0  0  0  0  0  0
   38.2250   42.5600   28.8660 C   0  0  0  0  0  0  0  0  0  0  0  0
   41.7490   39.9470   31.2610 C   0  0  0  0  0  0  0  0  0  0  0  0
   36.7510   42.2620   28.5610 C   0  0  0  0  0  0  0  0  0  0  0  0
   39.6000   39.0720   28.7910 N   0  0  0  0  0  0  0  0  0  0  0  0
   34.3590   41.9490   25.5150 S   0  0  0  0  0  0  0  0  0  0  0  0
   35.5600   42.7310   28.3090 C   0  0  0  0  0  0  0  0  0  0  0  0
   33.2440   42.8350   26.7580 S   0  0  0  0  0  0  0  0  0  0  0  0
   37.0270   41.4540   27.4060 C   0  0  0  0  0  0  0  0  0  0  0  0
  1  9  2  0
  1 17  1  0
  1  4  1  0
  2  6  1  0
  2  1  1  0
  3 17  1  0
  3  7  1  0
  5 22  1  0
  6  3  1  0
  8  2  1  0
 11 21  1  0
 12 23  1  0
 12 15  1  0
 13 12  1  0
 15 19  1  0
 15  8  1  0
 16  8  1  0
 17 14  1  0
 18 16  1  0
 19  6  1  0
 20 22  1  0
 20 11  1  0
 21 18  1  0
 22 11  1  0
 22 10  1  0
 23 18  1  0
M  END
$$$$

     RDKit          3D

  7  6  0  0  0  0  0  0  0  0999 V2000
   41.1400   41.9550   30.1050 C   0  0  0  0  0  0  0  0  0  0  0  0
   42.6640   39.9900   29.3250 N   0  0  0  0  0  0  0  0  0  0  0  0
   40.5470   40.1210   32.0220 N   0  0  0  0  0  0  0  0  0  0  0  0
   39.7100   40.3440   31.2870 C   0  0  0  0  0  0  0  0  0  0  0  0
   40.0900   41.7600   31.2210 C   0  0  0  0  0  0  0  0  0  0  0  0
   41.4640   40.9350   29.0100 C   0  0  0  0  0  0  0  0  0  0  0  0
   38.8440   39.7640   30.6260 O   0  0  0  0  0  0  0  0  0  0  0  0
  1  5  1  0
  4  3  1  0
  5  4  1  0
  6  2  1  0
  6  1  1  0
  7  4  2  0
M  END
$$$$

     RDKit          3D

  6  5  0  0  0  0  0  0  0  0999 V2000
   39.6690   41.7830   32.2350 O   0  0  0  0  0  0  0  0  0  0  0  0
   40.9600   39.7400   31.5700 C   0  0  0  0  0  0  0  0  0  0  0  0
   42.1080   40.3840   32.3340 C   0  0  0  0  0  0  0  0  0  0  0  0
   38.9900   40.6230   30.5210 O   0  0  0  0  0  0  0  0  0  0  0  0
   39.7820   40.8250   31.4440 C   0  0  0  0  0  0  0  0  0  0  0  0
   41.6990   38.4180   31.3140 N   0  0  0  0  0  0  0  0  0  0  0  0
  2  3  1  0
  4  5  2  0
  5  2  1  0
  5  1  1  0
  6  2  1  0
M  END
$$$$

     RDKit          3D

  7  6  0  0  0  0  0  0  0  0999 V2000
   40.3750   42.1670   31.3440 C   0  0  0  0  0  0  0  0  0  0  0  0
   40.8310   40.8700   28.9690 C   0  0  0  0  0  0  0  0  0  0  0  0
   39.9470   40.0100   28.2780 N   0  0  0  0  0  0  0  0  0  0  0  0
   40.2620   39.5080   31.1480 C   0  0  0  0  0  0  0  0  0  0  0  0
   39.4940   42.1840   32.2520 O   0  0  0  0  0  0  0  0  0  0  0  0
   39.1510   39.0290   30.3890 N   0  0  0  0  0  0  0  0  0  0  0  0
   40.6270   40.8700   30.5320 C   0  0  0  0  0  0  0  0  0  0  0  0
  1  5  2  0
  2  7  1  0
  3  2  1  0
  6  4  1  0
  7  4  1  0
  7  1  1  0
M  END
$$$$

     RDKit          3D

 14 14  0  0  0  0  0  0  0  0999 V2000
   41.0280   41.8270   28.0870 O   0  0  0  0  0  0  0  0  0  0  0  0
   38.7730   41.5840   28.8530 C   0  0  0  0  0  0  0  0  0  0  0  0
   42.3240   41.1930   30.0080 C   0  0  0  0  0  0  0  0  0  0  0  0
   42.1610   38.8630   30.5850 O   0  0  0  0  0  0  0  0  0  0  0  0
   39.7910   42.5130   28.2020 C   0  0  0  0  0  0  0  0  0  0  0  0
   39.6220   40.3630   28.8280 C   0  0  0  0  0  0  0  0  0  0  0  0
   40.1950   40.9180   31.6170 O   0  0  0  0  0  0  0  0  0  0  0  0
   41.2910   40.5380   32.0230 C   0  0  0  0  0  0  0  0  0  0  0  0
   41.4870   40.1730   33.3740 C   0  0  0  0  0  0  0  0  0  0  0  0
   37.3710   41.7380   28.2640 C   0  0  0  0  0  0  0  0  0  0  0  0
   42.3860   40.1230   31.1390 C   0  0  0  0  0  0  0  0  0  0  0  0
   41.1040   40.7700   29.0650 C   0  0  0  0  0  0  0  0  0  0  0  0
   39.3240   39.2910   28.3540 O   0  0  0  0  0  0  0  0  0  0  0  0
   43.6170   41.5100   29.4530 O   0  0  0  0  0  0  0  0  0  0  0  0
  1  5  1  0
  1 12  1  0
  2 10  1  0
  3 14  1  0
  3 11  1  0
  5  2  1  0
  6  2  1  0
  6 12  1  0
  7  8  2  0
  8  9  1  0
 11  4  1  0
 11  8  1  0
 12  3  1  0
 13  6  2  0
M  END
$$$$

     RDKit          3D

 14 13  0  0  0  0  0  0  0  0999 V2000
   43.2660   40.7750   29.6200 O   0  0  0  0  0  0  0  0  0  0  0  0
   41.6280   42.4610   30.3340 C   0  0  0  0  0  0  0  0  0  0  0  0
   39.7030   39.8870   29.6190 C   0  0  0  0  0  0  0  0  0  0  0  0
   40.9540   40.4480   29.2140 C   0  0  0  0  0  0  0  0  0  0  0  0
   38.8540   39.2730   28.6650 O   0  0  0  0  0  0  0  0  0  0  0  0
   42.2340   40.0930   30.0210 C   0  0  0  0  0  0  0  0  0  0  0  0
   39.2640   40.1090   31.0210 C   0  0  0  0  0  0  0  0  0  0  0  0
   40.8890   41.7510   29.2140 O   0  0  0  0  0  0  0  0  0  0  0  0
   42.0240   42.4820   31.6800 O   0  0  0  0  0  0  0  0  0  0  0  0
   42.1570   43.5640   29.5270 C   0  0  0  0  0  0  0  0  0  0  0  0
   41.0950   44.4440   29.1580 O   0  0  0  0  0  0  0  0  0  0  0  0
   42.1600   39.3690   30.9660 O   0  0  0  0  0  0  0  0  0  0  0  0
   40.1000   40.9580   31.6690 C   0  0  0  0  0  0  0  0  0  0  0  0
   39.4590   42.0800   32.0760 O   0  0  0  0  0  0  0  0  0  0  0  0
  1  6  2  0
  2  9  2  0
  3  5  1  0
  3  7  1  0
  4  8  1  0
  4  3  1  0
  4  6  1  0
  6 12  1  0
  7 13  1  0
  8  2  1  0
 10  2  1  0
 11 10  1  0
 13 14  1  0
M  END
$$$$

     RDKit          3D

 14 13  0  0  0  0  0  0  0  0999 V2000
   39.9610   42.4460   29.8500 C   0  0  0  0  0  0  0  0  0  0  0  0
   41.1560   38.4300   31.0760 O   0  0  0  0  0  0  0  0  0  0  0  0
   41.9290   40.2140   29.5160 C   0  0  0  0  0  0  0  0  0  0  0  0
   39.9690   43.4160   27.5520 S   0  0  0  0  0  0  0  0  0  0  0  0
   40.9740   40.6550   28.4220 O   0  0  0  0  0  0  0  0  0  0  0  0
   41.9030   39.6930   30.9580 C   0  0  0  0  0  0  0  0  0  0  0  0
   39.1460   39.9060   29.5670 C   0  0  0  0  0  0  0  0  0  0  0  0
   39.5450   40.4410   28.2230 C   0  0  0  0  0  0  0  0  0  0  0  0
   38.9650   43.0830   28.9310 C   0  0  0  0  0  0  0  0  0  0  0  0
   42.5100   42.0410   31.0880 O   0  0  0  0  0  0  0  0  0  0  0  0
   39.5310   41.1160   30.4400 C   0  0  0  0  0  0  0  0  0  0  0  0
   39.3530   38.4680   29.6320 O   0  0  0  0  0  0  0  0  0  0  0  0
   39.1530   41.0270   31.6500 O   0  0  0  0  0  0  0  0  0  0  0  0
   43.0180   41.2320   30.0300 C   0  0  0  0  0  0  0  0  0  0  0  0
  1 11  1  0
  3 14  1  0
  3  6  1  0
  4  9  1  0
  5  3  1  0
  6  2  1  0
  7 12  1  0
  7 11  1  0
  8  5  1  0
  8  7  1  0
  9  1  1  0
 11 13  2  0
 14 10  1  0
M  END
$$$$

     RDKit          3D

 20 21  0  0  0  0  0  0  0  0999 V2000
   39.4330   39.2240   30.6860 O   0  0  0  0  0  0  0  0  0  0  0  0
   41.5730   38.6440   31.8060 C   0  0  0  0  0  0  0  0  0  0  0  0
   37.4900   40.6000   26.5320 C   0  0  0  0  0  0  0  0  0  0  0  0
   42.2920   39.5430   30.8030 C   0  0  0  0  0  0  0  0  0  0  0  0
   40.2270   38.1540   31.1990 C   0  0  0  0  0  0  0  0  0  0  0  0
   35.6090   42.3310   27.6850 C   0  0  0  0  0  0  0  0  0  0  0  0
   39.0430   40.6480   28.6150 C   0  0  0  0  0  0  0  0  0  0  0  0
   37.7550   41.1040   27.8060 C   0  0  0  0  0  0  0  0  0  0  0  0
   40.0810   39.9360   29.6290 C   0  0  0  0  0  0  0  0  0  0  0  0
   41.3130   40.5900   30.2500 C   0  0  0  0  0  0  0  0  0  0  0  0
   39.5910   42.7510   30.0070 O   0  0  0  0  0  0  0  0  0  0  0  0
   43.4020   40.2780   31.4310 N   0  0  0  0  0  0  0  0  0  0  0  0
   40.6410   42.3190   28.0000 O   0  0  0  0  0  0  0  0  0  0  0  0
   39.5380   37.1250   32.1380 C   0  0  0  0  0  0  0  0  0  0  0  0
   36.2910   40.9060   25.8500 C   0  0  0  0  0  0  0  0  0  0  0  0
   36.8120   42.0470   28.3020 C   0  0  0  0  0  0  0  0  0  0  0  0
   44.5390   40.5690   30.4930 C   0  0  0  0  0  0  0  0  0  0  0  0
   39.8700   42.1160   29.0030 C   0  0  0  0  0  0  0  0  0  0  0  0
   35.3200   41.6910   26.4780 C   0  0  0  0  0  0  0  0  0  0  0  0
   38.8260   39.2560   28.2940 O   0  0  0  0  0  0  0  0  0  0  0  0
  1  5  1  0
  3  8  1  0
  4 12  1  0
  4  2  1  0
  5  2  1  0
  5 14  1  0
  6 16  1  0
  7 20  1  0
  7 18  1  0
  8 16  2  0
  8  7  1  0
  9  7  1  0
  9 10  1  0
  9  1  1  0
 10  4  1  0
 13 18  2  0
 15 19  1  0
 15  3  2  0
 17 12  1  0
 18 11  1  0
 19  6  2  0
M  END
$$$$

     RDKit          3D

 12 12  0  0  0  0  0  0  0  0999 V2000
   42.0780   39.8600   28.8000 I   0  0  0  0  0  0  0  0  0  0  0  0
   42.5940   39.9150   30.8880 C   0  0  0  0  0  0  0  0  0  0  0  0
   42.7360   40.1970   33.0130 O   0  0  0  0  0  0  0  0  0  0  0  0
   38.7910   41.5970   29.7430 C   0  0  0  0  0  0  0  0  0  0  0  0
   40.8010   40.6590   32.2800 N   0  0  0  0  0  0  0  0  0  0  0  0
   44.0580   39.9910   30.5490 C   0  0  0  0  0  0  0  0  0  0  0  0
   40.3190   42.0910   27.8540 C   0  0  0  0  0  0  0  0  0  0  0  0
   40.7440   40.6490   29.8840 C   0  0  0  0  0  0  0  0  0  0  0  0
   40.1700   40.8620   31.1600 C   0  0  0  0  0  0  0  0  0  0  0  0
   39.0100   41.4280   31.0580 N   0  0  0  0  0  0  0  0  0  0  0  0
   39.9550   41.3590   29.1770 N   0  0  0  0  0  0  0  0  0  0  0  0
   42.0380   40.2370   32.0760 C   0  0  0  0  0  0  0  0  0  0  0  0
  2 12  1  0
  4 10  1  0
  6  2  1  0
  7 11  1  0
  8  1  1  0
  8  9  1  0
  9  5  1  0
 10  9  2  0
 11  4  1  0
 11  8  1  0
 12  5  1  0
 12  3  2  0
M  END
$$$$

     RDKit          3D

 13 13  0  0  0  0  0  0  0  0999 V2000
   41.3340   41.4660   30.6030 C   0  0  0  0  0  0  0  0  0  0  0  0
   39.0170   40.5650   29.3840 C   0  0  0  0  0  0  0  0  0  0  0  0
   39.3230   38.7520   31.1610 C   0  0  0  0  0  0  0  0  0  0  0  0
   39.9390   42.7680   33.8070 C   0  0  0  0  0  0  0  0  0  0  0  0
   39.7980   37.5600   31.2300 C   0  0  0  0  0  0  0  0  0  0  0  0
   42.1350   40.5000   30.9240 O   0  0  0  0  0  0  0  0  0  0  0  0
   38.8210   41.8870   31.6550 O   0  0  0  0  0  0  0  0  0  0  0  0
   40.9100   41.7880   33.1340 C   0  0  0  0  0  0  0  0  0  0  0  0
   41.6720   42.1450   29.6730 O   0  0  0  0  0  0  0  0  0  0  0  0
   39.2440   41.8400   30.3530 C   0  0  0  0  0  0  0  0  0  0  0  0
   39.5400   41.0060   28.0180 O   0  0  0  0  0  0  0  0  0  0  0  0
   39.4880   39.2420   29.7840 O   0  0  0  0  0  0  0  0  0  0  0  0
   40.3700   41.5850   31.7030 C   0  0  0  0  0  0  0  0  0  0  0  0
  1  6  1  0
  1 13  1  0
  2 11  1  0
  2 12  1  0
  3  5  1  0
  7 13  1  0
  8  4  1  0
  9  1  2  0
 10  2  1  0
 10  7  1  0
 10 13  1  0
 12  3  1  0
 13  8  1  0
M  END
$$$$

     RDKit          3D

 20 20  0  0  0  0  0  0  0  0999 V2000
   44.2890   40.7970   30.3910 C   0  0  0  0  0  0  0  0  0  0  0  0
   41.6190   42.2930   30.8850 O   0  0  0  0  0  0  0  0  0  0  0  0
   36.7510   40.1260   26.1690 C   0  0  0  0  0  0  0  0  0  0  0  0
   40.3050   38.7630   30.8400 N   0  0  0  0  0  0  0  0  0  0  0  0
   35.8460   41.1900   26.2860 C   0  0  0  0  0  0  0  0  0  0  0  0
   37.8980   40.1030   26.9740 C   0  0  0  0  0  0  0  0  0  0  0  0
   39.9560   37.6600   31.7720 C   0  0  0  0  0  0  0  0  0  0  0  0
   35.2500   43.4190   27.2090 C   0  0  0  0  0  0  0  0  0  0  0  0
   37.1350   42.0500   28.1840 C   0  0  0  0  0  0  0  0  0  0  0  0
   40.3980   40.2290   31.0020 C   0  0  0  0  0  0  0  0  0  0  0  0
   42.9730   40.1760   30.7590 C   0  0  0  0  0  0  0  0  0  0  0  0
   32.9260   42.7000   27.7000 N   0  0  0  0  0  0  0  0  0  0  0  0
   38.0880   41.0340   27.9950 C   0  0  0  0  0  0  0  0  0  0  0  0
   41.6550   40.8820   30.3730 C   0  0  0  0  0  0  0  0  0  0  0  0
   42.9660   39.0310   31.2270 O   0  0  0  0  0  0  0  0  0  0  0  0
   39.1840   40.9160   30.3740 C   0  0  0  0  0  0  0  0  0  0  0  0
   36.0910   42.1940   27.2350 C   0  0  0  0  0  0  0  0  0  0  0  0
   33.9710   43.3590   27.6470 C   0  0  0  0  0  0  0  0  0  0  0  0
   39.8950   39.7090   28.6310 O   0  0  0  0  0  0  0  0  0  0  0  0
   39.3490   40.9140   28.8490 C   0  0  0  0  0  0  0  0  0  0  0  0
  1 11  1  0
  3  5  2  0
  3  6  1  0
  4 10  1  0
  4  7  1  0
  5 17  1  0
  6 13  2  0
  8 17  1  0
  8 18  1  0
 10 16  1  0
 11 15  2  0
 13  9  1  0
 13 20  1  0
 14 11  1  0
 14  2  1  0
 14 10  1  0
 17  9  2  0
 18 12  2  0
 20 19  1  0
 20 16  1  0
M  END
$$$$

     RDKit          3D

 15 15  0  0  0  0  0  0  0  0999 V2000
   40.2340   42.0610   33.7910 N   0  0  0  0  0  0  0  0  0  0  0  0
   40.0410   42.1220   31.4860 O   0  0  0  0  0  0  0  0  0  0  0  0
   40.7380   42.6390   32.5750 C   0  0  0  0  0  0  0  0  0  0  0  0
   38.6700   40.2620   27.5550 O   0  0  0  0  0  0  0  0  0  0  0  0
   40.1220   42.7690   30.0670 P   0  0  0  0  0  0  0  0  0  0  0  0
   39.9290   44.3570   29.8150 O   0  0  0  0  0  0  0  0  0  0  0  0
   41.8270   42.4390   29.7780 O   0  0  0  0  0  0  0  0  0  0  0  0
   39.0410   42.1020   28.7980 C   0  0  0  0  0  0  0  0  0  0  0  0
   40.6440   40.1420   30.4210 N   0  0  0  0  0  0  0  0  0  0  0  0
   40.9410   39.6700   31.8500 C   0  0  0  0  0  0  0  0  0  0  0  0
   38.0800   42.7610   28.5860 O   0  0  0  0  0  0  0  0  0  0  0  0
   41.1210   38.3010   31.7390 C   0  0  0  0  0  0  0  0  0  0  0  0
   42.3430   39.1580   31.7980 N   0  0  0  0  0  0  0  0  0  0  0  0
   39.8530   39.9940   29.6990 C   0  0  0  0  0  0  0  0  0  0  0  0
   39.7010   40.8750   28.2910 C   0  0  0  0  0  0  0  0  0  0  0  0
  2  3  1  0
  3  1  1  0
  5  7  2  0
  5  2  1  0
  6  5  1  0
  8  5  1  0
 10  9  1  0
 11  8  2  0
 12 13  1  0
 12 10  1  0
 13 10  1  0
 14  9  2  3
 15  4  1  0
 15  8  1  0
 15 14  1  0
M  END
$$$$

     RDKit          3D

 16 17  0  0  0  0  0  0  0  0999 V2000
   37.0150   42.0890   27.3370 O   0  0  0  0  0  0  0  0  0  0  0  0
   40.3680   42.1420   31.1710 C   0  0  0  0  0  0  0  0  0  0  0  0
   40.8740   40.1630   30.7650 N   0  0  0  0  0  0  0  0  0  0  0  0
   38.5250   43.8480   28.7280 N   0  0  0  0  0  0  0  0  0  0  0  0
   39.5130   39.7350   28.8040 N   0  0  0  0  0  0  0  0  0  0  0  0
   39.9700   40.5050   29.7730 C   0  0  0  0  0  0  0  0  0  0  0  0
   35.8310   42.4320   28.1050 C   0  0  0  0  0  0  0  0  0  0  0  0
   43.0570   38.9690   31.5930 N   0  0  0  0  0  0  0  0  0  0  0  0
   40.2650   43.3200   31.6390 O   0  0  0  0  0  0  0  0  0  0  0  0
   38.2560   39.6730   26.8950 O   0  0  0  0  0  0  0  0  0  0  0  0
   41.0560   41.1690   31.7640 N   0  0  0  0  0  0  0  0  0  0  0  0
   39.6770   41.8140   29.9280 C   0  0  0  0  0  0  0  0  0  0  0  0
   38.2240   41.7690   28.0920 C   0  0  0  0  0  0  0  0  0  0  0  0
   41.6680   38.7410   31.2010 C   0  0  0  0  0  0  0  0  0  0  0  0
   38.8280   42.5070   28.9790 C   0  0  0  0  0  0  0  0  0  0  0  0
   38.6040   40.3090   27.8390 C   0  0  0  0  0  0  0  0  0  0  0  0
  1  7  1  0
  2  9  2  0
  2 11  1  0
  3 14  1  0
  3 11  1  0
  4 15  1  0
  5  6  2  0
  6 12  1  0
  6  3  1  0
 10 16  2  0
 12  2  1  0
 13  1  1  0
 13 15  1  0
 14  8  1  0
 15 12  2  0
 16 13  1  0
 16  5  1  0
M  END
$$$$

     RDKit          3D

 14 13  0  0  0  0  0  0  0  0999 V2000
   39.0320   39.5400   27.6240 O   0  0  0  0  0  0  0  0  0  0  0  0
   39.7880   42.4070   33.6330 O   0  0  0  0  0  0  0  0  0  0  0  0
   40.0690   42.3940   32.5480 C   0  0  0  0  0  0  0  0  0  0  0  0
   43.9790   41.0270   30.6910 O   0  0  0  0  0  0  0  0  0  0  0  0
   40.7700   43.2290   32.1410 O   0  0  0  0  0  0  0  0  0  0  0  0
   39.4010   40.7250   28.5460 P   0  0  0  0  0  0  0  0  0  0  0  0
   39.6180   40.5310   31.1540 O   0  0  0  0  0  0  0  0  0  0  0  0
   39.4930   42.2560   27.8490 O   0  0  0  0  0  0  0  0  0  0  0  0
   39.5360   41.4920   31.4380 C   0  0  0  0  0  0  0  0  0  0  0  0
   41.9000   39.3410   30.8430 C   0  0  0  0  0  0  0  0  0  0  0  0
   38.6180   40.6480   30.0480 C   0  0  0  0  0  0  0  0  0  0  0  0
   42.6800   41.4280   30.1670 C   0  0  0  0  0  0  0  0  0  0  0  0
   41.7020   40.3160   30.1390 C   0  0  0  0  0  0  0  0  0  0  0  0
   40.6900   40.3480   29.2190 O   0  0  0  0  0  0  0  0  0  0  0  0
  3  2  1  0
  5  3  2  0
  6  1  2  0
  6 14  1  0
  6 11  1  0
  7  9  1  0
  8  6  1  0
  9  3  1  0
 11  7  1  0
 12  4  1  0
 13 12  1  0
 13 10  2  0
 14 13  1  0
M  END
$$$$

     RDKit          3D

  8  8  0  0  0  0  0  0  0  0999 V2000
   40.0480   42.8060   32.4940 C   0  0  0  0  0  0  0  0  0  0  0  0
   40.6220   41.7420   31.6060 C   0  0  0  0  0  0  0  0  0  0  0  0
   42.4590   40.8310   30.2540 C   0  0  0  0  0  0  0  0  0  0  0  0
   38.6940   40.5260   31.5090 O   0  0  0  0  0  0  0  0  0  0  0  0
   41.8040   41.9190   30.8820 C   0  0  0  0  0  0  0  0  0  0  0  0
   40.5470   39.4260   30.8430 N   0  0  0  0  0  0  0  0  0  0  0  0
   39.8710   40.5180   31.3920 C   0  0  0  0  0  0  0  0  0  0  0  0
   41.9050   39.5410   30.4430 C   0  0  0  0  0  0  0  0  0  0  0  0
  2  1  1  0
  3  8  1  0
  3  5  2  0
  5  2  1  0
  6  7  1  0
  7  4  2  0
  7  2  1  0
  8  6  1  0
M  END
$$$$

     RDKit          3D

  9  9  0  0  0  0  0  0  0  0999 V2000
   38.7200   41.2920   30.8150 O   0  0  0  0  0  0  0  0  0  0  0  0
   40.8640   41.7710   31.7780 C   0  0  0  0  0  0  0  0  0  0  0  0
   42.9550   41.1070   30.2600 O   0  0  0  0  0  0  0  0  0  0  0  0
   39.9500   41.1550   30.7320 C   0  0  0  0  0  0  0  0  0  0  0  0
   40.5860   38.5170   31.3530 O   0  0  0  0  0  0  0  0  0  0  0  0
   40.6460   40.4900   29.5560 C   0  0  0  0  0  0  0  0  0  0  0  0
   42.0300   40.0440   30.0440 C   0  0  0  0  0  0  0  0  0  0  0  0
   41.7680   39.3990   31.4220 C   0  0  0  0  0  0  0  0  0  0  0  0
   41.5620   40.5500   32.4160 C   0  0  0  0  0  0  0  0  0  0  0  0
  2  9  1  0
  4  1  2  0
  4  2  1  0
  6  7  1  0
  6  4  1  0
  7  3  1  0
  7  8  1  0
  8  5  1  0
  8  9  1  0
M  END
$$$$

     RDKit          3D

 13 13  0  0  0  0  0  0  0  0999 V2000
   39.6330   41.1380   32.5030 C   0  0  0  0  0  0  0  0  0  0  0  0
   39.2220   40.4420   31.3100 C   0  0  0  0  0  0  0  0  0  0  0  0
   38.1320   41.8910   27.9480 O   0  0  0  0  0  0  0  0  0  0  0  0
   41.3360   38.8460   31.4350 C   0  0  0  0  0  0  0  0  0  0  0  0
   41.4720   39.9140   30.1900 C   0  0  0  0  0  0  0  0  0  0  0  0
   41.0110   41.0600   29.1360 C   0  0  0  0  0  0  0  0  0  0  0  0
   38.2430   41.8340   30.9490 O   0  0  0  0  0  0  0  0  0  0  0  0
   39.3180   40.9300   28.4730 P   0  0  0  0  0  0  0  0  0  0  0  0
   38.4590   40.8290   30.0380 C   0  0  0  0  0  0  0  0  0  0  0  0
   42.0620   39.2750   32.7110 N   0  0  0  0  0  0  0  0  0  0  0  0
   40.6190   41.9220   32.4380 O   0  0  0  0  0  0  0  0  0  0  0  0
   38.8070   39.5850   27.8800 O   0  0  0  0  0  0  0  0  0  0  0  0
   42.9200   40.0380   29.9510 N   0  0  0  0  0  0  0  0  0  0  0  0
  2  1  1  0
  3  8  1  0
  4 10  1  0
  5 13  1  0
  5  4  1  0
  6  5  1  0
  7  2  1  0
  8 12  2  0
  8  6  1  0
  9  8  1  0
  9  7  1  0
  9  2  1  0
 11  1  2  0
M  END
$$$$

     RDKit          3D

 12 12  0  0  0  0  0  0  0  0999 V2000
   40.8960   42.6050   28.3360 O   0  0  0  0  0  0  0  0  0  0  0  0
   42.4820   40.9570   33.0910 S   0  0  0  0  0  0  0  0  0  0  0  0
   40.6860   40.9120   32.6350 C   0  0  0  0  0  0  0  0  0  0  0  0
   39.9430   40.6510   29.0290 C   0  0  0  0  0  0  0  0  0  0  0  0
   43.3490   39.7020   32.3310 C   0  0  0  0  0  0  0  0  0  0  0  0
   42.1810   42.7910   33.5500 C   0  0  0  0  0  0  0  0  0  0  0  0
   39.7070   40.9820   31.4980 O   0  0  0  0  0  0  0  0  0  0  0  0
   42.9030   40.6800   31.2320 C   0  0  0  0  0  0  0  0  0  0  0  0
   40.0320   39.7700   30.5620 C   0  0  0  0  0  0  0  0  0  0  0  0
   40.8310   39.1940   31.5370 N   0  0  0  0  0  0  0  0  0  0  0  0
   40.2500   41.9680   29.2210 C   0  0  0  0  0  0  0  0  0  0  0  0
   38.8920   40.0860   28.5280 O   0  0  0  0  0  0  0  0  0  0  0  0
  1 11  2  0
  2  6  1  0
  3  2  1  0
  4 12  1  0
  4 11  1  0
  4  9  1  0
  5  2  1  0
  7  3  1  0
  8  5  1  0
  8  2  1  0
  9  7  1  0
  9 10  1  0
M  END
$$$$

     RDKit          3D

 16 17  0  0  0  0  0  0  0  0999 V2000
   38.2560   43.6200   27.3900 C   0  0  0  0  0  0  0  0  0  0  0  0
   39.1130   42.5420   28.1170 C   0  0  0  0  0  0  0  0  0  0  0  0
   39.1910   40.2880   28.9620 O   0  0  0  0  0  0  0  0  0  0  0  0
   40.3350   42.2190   27.2280 C   0  0  0  0  0  0  0  0  0  0  0  0
   43.1430   40.5350   28.6550 C   0  0  0  0  0  0  0  0  0  0  0  0
   39.7790   40.6720   30.2470 C   0  0  0  0  0  0  0  0  0  0  0  0
   38.3400   41.3140   28.4400 C   0  0  0  0  0  0  0  0  0  0  0  0
   40.5800   39.5920   30.5360 C   0  0  0  0  0  0  0  0  0  0  0  0
   41.7400   41.6840   27.6080 C   0  0  0  0  0  0  0  0  0  0  0  0
   42.4160   41.8100   26.6280 O   0  0  0  0  0  0  0  0  0  0  0  0
   39.7630   37.3030   31.2110 C   0  0  0  0  0  0  0  0  0  0  0  0
   40.2960   41.9170   32.3220 O   0  0  0  0  0  0  0  0  0  0  0  0
   41.9120   41.2730   29.0360 C   0  0  0  0  0  0  0  0  0  0  0  0
   41.4000   40.1420   29.6230 N   0  0  0  0  0  0  0  0  0  0  0  0
   39.7390   41.7380   31.2880 C   0  0  0  0  0  0  0  0  0  0  0  0
   40.1560   38.3920   30.9450 C   0  0  0  0  0  0  0  0  0  0  0  0
  2  1  1  0
  2  7  1  0
  3  6  1  0
  4  9  1  0
  4  2  1  0
  6  8  1  0
  6 15  1  0
  7  3  1  0
  8 16  1  0
  9 13  1  0
 10  9  2  0
 13  5  1  0
 13 14  1  0
 14  6  1  0
 14  8  1  0
 15 12  2  0
 16 11  3  0
M  END
$$$$
