
     RDKit          3D

 28 31  0  0  0  0  0  0  0  0999 V2000
   41.6250   36.2710   27.1110 C   0  0  0  0  0  0  0  0  0  0  0  0
   43.2130   33.8830   30.0260 C   0  0  0  0  0  0  0  0  0  0  0  0
   40.6360   36.9100   24.0550 C   0  0  0  0  0  0  0  0  0  0  0  0
   39.0790   35.1160   26.4760 O   0  0  0  0  0  0  0  0  0  0  0  0
   40.3560   32.8660   30.5400 C   0  0  0  0  0  0  0  0  0  0  0  0
   39.3360   36.2540   24.3730 C   0  0  0  0  0  0  0  0  0  0  0  0
   38.1770   37.2600   24.2860 C   0  0  0  0  0  0  0  0  0  0  0  0
   45.5760   34.4040   29.2780 C   0  0  0  0  0  0  0  0  0  0  0  0
   36.4900   37.9890   22.5480 N   0  0  0  0  0  0  0  0  0  0  0  0
   44.4430   35.6220   27.0760 C   0  0  0  0  0  0  0  0  0  0  0  0
   43.8050   36.3200   25.8820 C   0  0  0  0  0  0  0  0  0  0  0  0
   42.6720   37.4030   26.5520 S   0  0  0  0  0  0  0  0  0  0  0  0
   46.3860   34.9330   28.3270 C   0  0  0  0  0  0  0  0  0  0  0  0
   35.7410   36.7300   20.5580 C   0  0  0  0  0  0  0  0  0  0  0  0
   40.7180   33.6650   29.2820 C   0  0  0  0  0  0  0  0  0  0  0  0
   41.5240   37.2030   23.5100 O   0  0  0  0  0  0  0  0  0  0  0  0
   37.9930   37.9530   22.9580 C   0  0  0  0  0  0  0  0  0  0  0  0
   39.7690   35.6230   25.6090 C   0  0  0  0  0  0  0  0  0  0  0  0
   39.8650   33.9420   28.2500 O   0  0  0  0  0  0  0  0  0  0  0  0
   41.0400   35.9540   25.8120 N   0  0  0  0  0  0  0  0  0  0  0  0
   35.3850   37.0290   23.0530 C   0  0  0  0  0  0  0  0  0  0  0  0
   44.2280   34.5170   29.1190 C   0  0  0  0  0  0  0  0  0  0  0  0
   34.4290   36.7260   21.8200 C   0  0  0  0  0  0  0  0  0  0  0  0
   43.6390   35.1730   28.0810 C   0  0  0  0  0  0  0  0  0  0  0  0
   41.9920   34.1580   29.2790 N   0  0  0  0  0  0  0  0  0  0  0  0
   45.8160   35.5240   27.2340 C   0  0  0  0  0  0  0  0  0  0  0  0
   42.2400   35.3040   28.1630 C   0  0  0  0  0  0  0  0  0  0  0  0
   36.4720   37.8490   21.0900 C   0  0  0  0  0  0  0  0  0  0  0  0
  1 20  1  0
  1 27  1  0
  6  3  1  0
  6 18  1  0
  7  6  1  0
  9 17  1  0
  9 21  1  0
 10 26  2  0
 10 24  1  0
 11 12  1  0
 11 10  1  0
 12  1  1  0
 13  8  2  0
 14 28  1  0
 14 23  1  0
 15  5  1  0
 16  3  1  0
 17  7  1  0
 18 20  1  0
 18  4  2  0
 19 15  2  0
 22  8  1  0
 22  2  1  0
 23 21  1  0
 24 22  2  0
 25 15  1  0
 25  2  1  0
 26 13  1  0
 27 24  1  0
 27 25  1  0
 28  9  1  0
M  END
$$$$

     RDKit          3D

 18 20  0  0  0  0  0  0  0  0999 V2000
   42.1060   36.8330   24.1680 C   0  0  0  0  0  0  0  0  0  0  0  0
   42.7480   35.5660   26.6070 C   0  0  0  0  0  0  0  0  0  0  0  0
   42.5200   33.5470   28.9570 N   0  0  0  0  0  0  0  0  0  0  0  0
   42.3770   36.0260   27.9680 C   0  0  0  0  0  0  0  0  0  0  0  0
   44.5100   36.3710   29.2040 C   0  0  0  0  0  0  0  0  0  0  0  0
   41.6410   32.6480   29.7880 C   0  0  0  0  0  0  0  0  0  0  0  0
   43.0290   35.6050   24.2410 C   0  0  0  0  0  0  0  0  0  0  0  0
   40.8460   36.3140   28.4780 C   0  0  0  0  0  0  0  0  0  0  0  0
   43.1720   37.0200   28.5690 C   0  0  0  0  0  0  0  0  0  0  0  0
   40.0440   33.5400   29.7320 S   0  0  0  0  0  0  0  0  0  0  0  0
   43.1730   34.9610   23.0070 O   0  0  0  0  0  0  0  0  0  0  0  0
   41.2150   36.6740   25.2750 C   0  0  0  0  0  0  0  0  0  0  0  0
   40.1220   36.2220   25.2210 O   0  0  0  0  0  0  0  0  0  0  0  0
   40.4650   34.8060   28.8410 N   0  0  0  0  0  0  0  0  0  0  0  0
   43.3890   33.6400   25.4760 O   0  0  0  0  0  0  0  0  0  0  0  0
   42.4740   34.7520   25.3320 C   0  0  0  0  0  0  0  0  0  0  0  0
   41.9470   34.6670   28.6030 C   0  0  0  0  0  0  0  0  0  0  0  0
   41.9530   36.8690   26.5910 C   0  0  0  0  0  0  0  0  0  0  0  0
  1  7  1  0
  1 12  1  0
  2 18  1  0
  2  4  1  0
  3  6  1  0
  4  8  1  0
  4  9  1  0
  4 17  1  0
  7 11  1  0
  7 16  1  0
  8 14  1  0
  9  5  1  0
 10  6  1  0
 12 18  1  0
 13 12  2  0
 14 10  1  0
 16 15  1  0
 16  2  1  0
 17 14  1  0
 17  3  2  0
M  END
$$$$

     RDKit          3D

  7  7  0  0  0  0  0  0  0  0999 V2000
   40.3420   34.8600   27.9790 C   0  0  0  0  0  0  0  0  0  0  0  0
   42.7740   34.4140   28.0260 C   0  0  0  0  0  0  0  0  0  0  0  0
   41.6560   34.7710   25.9210 C   0  0  0  0  0  0  0  0  0  0  0  0
   41.5260   34.5530   28.7140 C   0  0  0  0  0  0  0  0  0  0  0  0
   40.4570   34.8620   26.6010 N   0  0  0  0  0  0  0  0  0  0  0  0
   43.8390   34.0820   28.7040 N   0  0  0  0  0  0  0  0  0  0  0  0
   42.8590   34.5830   26.6340 C   0  0  0  0  0  0  0  0  0  0  0  0
  1  4  1  0
  2  6  1  0
  2  4  2  0
  3  5  1  0
  3  7  2  0
  5  1  2  0
  7  2  1  0
M  END
$$$$

     RDKit          3D

 19 19  0  0  0  0  0  0  0  0999 V2000
   43.4530   35.0080   27.8210 C   0  0  0  0  0  0  0  0  0  0  0  0
   39.6920   38.8700   23.2510 C   0  0  0  0  0  0  0  0  0  0  0  0
   40.8080   34.7750   26.4350 N   0  0  0  0  0  0  0  0  0  0  0  0
   39.4250   33.3830   25.2710 O   0  0  0  0  0  0  0  0  0  0  0  0
   39.2800   37.5530   23.3410 N   0  0  0  0  0  0  0  0  0  0  0  0
   40.0300   36.7830   24.3520 C   0  0  0  0  0  0  0  0  0  0  0  0
   39.9760   34.4640   25.4190 C   0  0  0  0  0  0  0  0  0  0  0  0
   44.4700   35.8630   29.9490 C   0  0  0  0  0  0  0  0  0  0  0  0
   42.2270   35.7500   27.9140 O   0  0  0  0  0  0  0  0  0  0  0  0
   44.0660   34.6250   29.1500 C   0  0  0  0  0  0  0  0  0  0  0  0
   40.5240   33.1110   30.1860 C   0  0  0  0  0  0  0  0  0  0  0  0
   41.8650   36.9720   26.0020 C   0  0  0  0  0  0  0  0  0  0  0  0
   39.7080   35.4520   24.4820 N   0  0  0  0  0  0  0  0  0  0  0  0
   43.1360   33.6380   29.8330 N   0  0  0  0  0  0  0  0  0  0  0  0
   41.0310   37.4520   24.9840 C   0  0  0  0  0  0  0  0  0  0  0  0
   37.8690   37.2560   23.4020 C   0  0  0  0  0  0  0  0  0  0  0  0
   44.4290   35.7210   26.9740 O   0  0  0  0  0  0  0  0  0  0  0  0
   41.6060   35.8440   26.6880 C   0  0  0  0  0  0  0  0  0  0  0  0
   41.7950   33.5070   29.8940 C   0  0  0  0  0  0  0  0  0  0  0  0
  1 17  1  0
  1  9  1  0
  1 10  1  0
  2  5  1  0
  3 18  2  0
  4  7  2  0
  5 16  1  0
  6  5  1  0
  6 13  1  0
  6 15  1  0
  7  3  1  0
 10 14  1  0
 10  8  1  0
 12 18  1  0
 13  7  1  0
 14 19  1  0
 15 12  2  0
 18  9  1  0
 19 11  1  0
M  END
$$$$

     RDKit          3D

 26 29  0  0  0  0  0  0  0  0999 V2000
   37.5690   35.7250   26.4080 C   0  0  0  0  0  0  0  0  0  0  0  0
   42.9590   34.6490   26.9830 C   0  0  0  0  0  0  0  0  0  0  0  0
   38.1770   34.5870   29.6300 O   0  0  0  0  0  0  0  0  0  0  0  0
   41.9690   33.6010   29.4930 N   0  0  0  0  0  0  0  0  0  0  0  0
   42.2880   35.1270   24.4250 C   0  0  0  0  0  0  0  0  0  0  0  0
   42.8510   35.6590   25.5810 C   0  0  0  0  0  0  0  0  0  0  0  0
   36.1430   35.9480   24.1190 C   0  0  0  0  0  0  0  0  0  0  0  0
   40.9710   35.4910   23.3200 C   0  0  0  0  0  0  0  0  0  0  0  0
   38.7060   34.7870   26.3690 C   0  0  0  0  0  0  0  0  0  0  0  0
   41.4950   36.6630   28.4560 O   0  0  0  0  0  0  0  0  0  0  0  0
   40.8650   35.5040   28.6960 C   0  0  0  0  0  0  0  0  0  0  0  0
   39.6620   35.1040   28.2470 C   0  0  0  0  0  0  0  0  0  0  0  0
   38.6620   33.6920   29.0350 C   0  0  0  0  0  0  0  0  0  0  0  0
   39.6210   32.7910   29.3520 C   0  0  0  0  0  0  0  0  0  0  0  0
   36.9730   37.0980   23.4600 C   0  0  0  0  0  0  0  0  0  0  0  0
   43.1040   38.2380   24.8070 C   0  0  0  0  0  0  0  0  0  0  0  0
   39.5490   35.6210   23.9990 C   0  0  0  0  0  0  0  0  0  0  0  0
   41.1260   35.8590   22.2070 O   0  0  0  0  0  0  0  0  0  0  0  0
   36.2770   36.0860   25.6230 C   0  0  0  0  0  0  0  0  0  0  0  0
   38.5100   36.6250   23.2860 C   0  0  0  0  0  0  0  0  0  0  0  0
   39.1440   34.4720   25.0560 C   0  0  0  0  0  0  0  0  0  0  0  0
   41.9760   34.4930   28.1980 C   0  0  0  0  0  0  0  0  0  0  0  0
   40.8860   32.7550   29.8340 C   0  0  0  0  0  0  0  0  0  0  0  0
   42.6570   37.0770   25.9680 C   0  0  0  0  0  0  0  0  0  0  0  0
   41.4320   36.9080   27.1020 O   0  0  0  0  0  0  0  0  0  0  0  0
   38.9710   34.2480   27.6830 C   0  0  0  0  0  0  0  0  0  0  0  0
  4 23  1  0
  6  5  1  0
  6 24  1  0
  6  2  1  0
  7 19  1  0
  8 17  1  0
  8  5  1  0
  9 21  1  0
  9  1  1  0
  9 26  1  0
 10 11  1  0
 11 12  1  0
 13 14  1  0
 13  3  2  0
 14 23  1  0
 15  7  1  0
 17 21  1  0
 18  8  2  0
 19  1  1  0
 20 15  1  0
 20 17  2  0
 22  2  1  0
 22 11  1  0
 22  4  1  0
 24 16  1  0
 24 25  1  0
 25 10  1  0
 26 12  1  0
 26 13  1  0
M  END
$$$$

     RDKit          3D

 15 15  0  0  0  0  0  0  0  0999 V2000
   44.5470   34.1710   24.6410 C   0  0  0  0  0  0  0  0  0  0  0  0
   42.3600   36.6870   28.6120 C   0  0  0  0  0  0  0  0  0  0  0  0
   43.4540   36.2270   25.1680 C   0  0  0  0  0  0  0  0  0  0  0  0
   41.1290   37.2170   25.1610 C   0  0  0  0  0  0  0  0  0  0  0  0
   41.0080   35.3840   27.0700 C   0  0  0  0  0  0  0  0  0  0  0  0
   44.3600   35.5010   24.4050 C   0  0  0  0  0  0  0  0  0  0  0  0
   39.3390   36.1360   26.1130 O   0  0  0  0  0  0  0  0  0  0  0  0
   44.1980   33.6530   25.8420 C   0  0  0  0  0  0  0  0  0  0  0  0
   40.1180   35.3930   28.0010 C   0  0  0  0  0  0  0  0  0  0  0  0
   40.6640   36.0820   25.9210 C   0  0  0  0  0  0  0  0  0  0  0  0
   40.8530   35.3980   29.0860 C   0  0  0  0  0  0  0  0  0  0  0  0
   43.4270   36.0610   29.3530 N   0  0  0  0  0  0  0  0  0  0  0  0
   42.1990   36.2760   27.3750 C   0  0  0  0  0  0  0  0  0  0  0  0
   43.4240   34.3790   26.7430 C   0  0  0  0  0  0  0  0  0  0  0  0
   43.0250   35.6830   26.3580 C   0  0  0  0  0  0  0  0  0  0  0  0
  1  8  1  0
  2 12  1  0
  3 15  2  0
  5 13  1  0
  5  9  1  0
  6  1  2  0
  6  3  1  0
  8 14  2  0
  9 11  1  0
 10  4  1  0
 10  7  1  0
 10  5  1  0
 13  2  1  0
 15 14  1  0
 15 13  1  0
M  END
$$$$

     RDKit          3D

 16 16  0  0  0  0  0  0  0  0999 V2000
   40.2730   36.9960   25.3820 C   0  0  0  0  0  0  0  0  0  0  0  0
   40.9820   34.3860   28.3820 C   0  0  0  0  0  0  0  0  0  0  0  0
   42.1520   35.2010   27.9820 N   0  0  0  0  0  0  0  0  0  0  0  0
   42.0450   36.0730   26.7820 C   0  0  0  0  0  0  0  0  0  0  0  0
   43.1350   37.4400   26.9490 S   0  0  0  0  0  0  0  0  0  0  0  0
   44.4070   35.7150   28.2800 O   0  0  0  0  0  0  0  0  0  0  0  0
   43.3820   35.0100   28.6000 C   0  0  0  0  0  0  0  0  0  0  0  0
   40.5660   34.6240   25.4430 C   0  0  0  0  0  0  0  0  0  0  0  0
   39.3070   36.8540   24.3690 C   0  0  0  0  0  0  0  0  0  0  0  0
   39.2890   33.2460   24.0270 O   0  0  0  0  0  0  0  0  0  0  0  0
   39.6110   34.4820   24.4430 C   0  0  0  0  0  0  0  0  0  0  0  0
   40.9490   35.8960   25.8830 C   0  0  0  0  0  0  0  0  0  0  0  0
   43.3140   38.5730   28.3480 C   0  0  0  0  0  0  0  0  0  0  0  0
   43.5400   34.0390   29.5350 N   0  0  0  0  0  0  0  0  0  0  0  0
   39.0140   35.6000   23.8570 C   0  0  0  0  0  0  0  0  0  0  0  0
   43.1990   37.9420   25.1220 S   0  0  0  0  0  0  0  0  0  0  0  0
  1 12  1  0
  3  2  1  0
  3  7  1  0
  4  5  1  0
  4  3  1  0
  5 13  1  0
  6  7  2  0
  7 14  1  0
  8 12  2  0
  9  1  2  0
 10 11  1  0
 11  8  1  0
 12  4  1  0
 15  9  1  0
 15 11  2  0
 16  5  2  0
M  END
$$$$

     RDKit          3D

 25 26  0  0  0  0  0  0  0  0999 V2000
   32.2440   35.8300   35.3890 C   0  0  0  0  0  0  0  0  0  0  0  0
   40.6210   34.4660   27.2650 N   0  0  0  0  0  0  0  0  0  0  0  0
   44.2390   34.6160   29.5390 C   0  0  0  0  0  0  0  0  0  0  0  0
   40.4410   34.2080   25.0390 O   0  0  0  0  0  0  0  0  0  0  0  0
   40.7580   34.3160   29.6650 C   0  0  0  0  0  0  0  0  0  0  0  0
   33.0860   38.1540   36.1650 C   0  0  0  0  0  0  0  0  0  0  0  0
   38.8450   34.8650   31.2000 C   0  0  0  0  0  0  0  0  0  0  0  0
   41.4320   34.4430   28.3890 C   0  0  0  0  0  0  0  0  0  0  0  0
   37.5270   35.5550   31.0860 C   0  0  0  0  0  0  0  0  0  0  0  0
   44.1730   35.2070   24.1530 N   0  0  0  0  0  0  0  0  0  0  0  0
   32.6590   36.2000   33.3550 C   0  0  0  0  0  0  0  0  0  0  0  0
   43.1350   35.3340   24.8190 C   0  0  0  0  0  0  0  0  0  0  0  0
   36.5460   34.6770   32.0810 C   0  0  0  0  0  0  0  0  0  0  0  0
   32.2550   37.1610   35.4800 N   0  0  0  0  0  0  0  0  0  0  0  0
   34.7210   36.6200   32.0570 C   0  0  0  0  0  0  0  0  0  0  0  0
   41.1490   34.4800   25.9780 C   0  0  0  0  0  0  0  0  0  0  0  0
   44.7100   34.1520   26.5960 O   0  0  0  0  0  0  0  0  0  0  0  0
   43.0340   34.3730   28.4940 C   0  0  0  0  0  0  0  0  0  0  0  0
   31.8230   37.2580   34.0250 O   0  0  0  0  0  0  0  0  0  0  0  0
   35.1330   35.2600   32.5880 C   0  0  0  0  0  0  0  0  0  0  0  0
   39.6930   34.7740   29.9110 C   0  0  0  0  0  0  0  0  0  0  0  0
   32.7410   35.2030   34.2860 C   0  0  0  0  0  0  0  0  0  0  0  0
   43.5720   34.4020   27.0140 N   0  0  0  0  0  0  0  0  0  0  0  0
   42.6300   34.7650   25.9020 C   0  0  0  0  0  0  0  0  0  0  0  0
   33.3260   36.7150   32.1450 C   0  0  0  0  0  0  0  0  0  0  0  0
  1 14  1  0
  2  8  2  0
  4 16  2  0
  5 21  2  3
  8 18  1  0
  8  5  1  0
  9  7  1  0
  9 13  1  0
 10 12  2  0
 11 25  1  0
 11 19  1  0
 11 22  1  0
 13 20  2  3
 14  6  1  0
 15 25  1  0
 15 20  1  0
 16  2  1  0
 18  3  1  0
 19 14  1  0
 21  7  1  0
 22  1  1  0
 23 17  1  0
 23 18  1  0
 24 12  1  0
 24 16  1  0
 24 23  1  0
M  END
$$$$

     RDKit          3D

 12 12  0  0  0  0  0  0  0  0999 V2000
   43.0240   34.7280   29.3890 C   0  0  0  0  0  0  0  0  0  0  0  0
   42.2930   35.2490   28.6030 C   0  0  0  0  0  0  0  0  0  0  0  0
   43.7130   34.9900   30.5700 N   0  0  0  0  0  0  0  0  0  0  0  0
   40.9590   35.4960   26.2900 C   0  0  0  0  0  0  0  0  0  0  0  0
   39.7840   34.0830   24.8610 O   0  0  0  0  0  0  0  0  0  0  0  0
   42.9980   35.6110   27.7570 C   0  0  0  0  0  0  0  0  0  0  0  0
   40.3550   34.3760   26.0850 C   0  0  0  0  0  0  0  0  0  0  0  0
   40.3890   36.4630   26.0580 O   0  0  0  0  0  0  0  0  0  0  0  0
   43.1300   35.5260   25.2470 N   0  0  0  0  0  0  0  0  0  0  0  0
   43.6780   34.1530   27.5470 C   0  0  0  0  0  0  0  0  0  0  0  0
   42.4580   35.5920   26.5210 C   0  0  0  0  0  0  0  0  0  0  0  0
   43.5130   33.6330   28.7330 N   0  0  0  0  0  0  0  0  0  0  0  0
  1  3  1  0
  2  1  1  0
  4 11  1  0
  5  7  1  0
  6 11  1  0
  6  2  1  0
  7  4  1  0
  8  4  2  0
 10  6  1  0
 10 12  1  0
 11  9  1  0
 12  1  1  0
M  END
$$$$

     RDKit          3D

 16 15  0  0  0  0  0  0  0  0999 V2000
   42.9800   36.7190   26.3160 C   0  0  0  0  0  0  0  0  0  0  0  0
   43.0490   38.1660   25.8620 C   0  0  0  0  0  0  0  0  0  0  0  0
   43.2220   34.2200   26.0090 C   0  0  0  0  0  0  0  0  0  0  0  0
   43.8540   35.1350   29.5780 C   0  0  0  0  0  0  0  0  0  0  0  0
   43.6540   36.3310   30.0910 N   0  0  0  0  0  0  0  0  0  0  0  0
   39.5570   34.7710   26.5810 C   0  0  0  0  0  0  0  0  0  0  0  0
   40.4840   35.3460   25.5550 C   0  0  0  0  0  0  0  0  0  0  0  0
   43.1360   34.1780   27.4850 C   0  0  0  0  0  0  0  0  0  0  0  0
   41.4670   36.2910   26.3180 C   0  0  0  0  0  0  0  0  0  0  0  0
   44.2940   34.5470   25.5300 O   0  0  0  0  0  0  0  0  0  0  0  0
   43.3720   34.0480   29.9290 O   0  0  0  0  0  0  0  0  0  0  0  0
   42.2860   33.7920   25.2870 O   0  0  0  0  0  0  0  0  0  0  0  0
   40.7890   37.4400   26.6720 O   0  0  0  0  0  0  0  0  0  0  0  0
   43.3950   36.6760   27.6630 O   0  0  0  0  0  0  0  0  0  0  0  0
   40.2730   34.3090   27.7430 O   0  0  0  0  0  0  0  0  0  0  0  0
   43.8890   35.3220   28.0670 C   0  0  0  0  0  0  0  0  0  0  0  0
  1  2  1  0
  1  9  1  0
  1 14  1  0
  3  8  1  0
  4 11  2  0
  4  5  1  0
  6 15  1  0
  7  9  1  0
  7  6  1  0
  9 13  1  0
 10  3  1  0
 12  3  2  0
 14 16  1  0
 16  8  1  0
 16  4  1  0
M  END
$$$$

     RDKit          3D

  7  7  0  0  0  0  0  0  0  0999 V2000
   42.3330   35.5130   28.7870 C   0  0  0  0  0  0  0  0  0  0  0  0
   41.8580   34.8670   25.9680 C   0  0  0  0  0  0  0  0  0  0  0  0
   43.1270   34.4910   26.7000 C   0  0  0  0  0  0  0  0  0  0  0  0
   41.1560   36.0610   28.1540 N   0  0  0  0  0  0  0  0  0  0  0  0
   42.9180   34.4540   28.0930 N   0  0  0  0  0  0  0  0  0  0  0  0
   41.0970   35.9990   26.5880 C   0  0  0  0  0  0  0  0  0  0  0  0
   44.1130   34.3560   28.7360 C   0  0  0  0  0  0  0  0  0  0  0  0
  2  6  1  0
  2  3  1  0
  3  5  1  0
  4  1  1  0
  5  7  1  0
  5  1  1  0
  6  4  1  0
M  END
$$$$

     RDKit          3D

 10 11  0  0  0  0  0  0  0  0999 V2000
   42.9880   35.6240   29.6170 N   0  0  0  0  0  0  0  0  0  0  0  0
   40.9880   34.4350   28.9840 C   0  0  0  0  0  0  0  0  0  0  0  0
   41.6750   34.9220   25.9550 C   0  0  0  0  0  0  0  0  0  0  0  0
   42.4420   34.7310   28.8060 C   0  0  0  0  0  0  0  0  0  0  0  0
   41.3590   36.2500   26.6850 C   0  0  0  0  0  0  0  0  0  0  0  0
   43.3290   34.2140   27.7400 C   0  0  0  0  0  0  0  0  0  0  0  0
   42.6000   33.7880   26.4910 C   0  0  0  0  0  0  0  0  0  0  0  0
   40.6990   37.4840   26.2980 N   0  0  0  0  0  0  0  0  0  0  0  0
   42.2970   36.0830   25.2430 N   0  0  0  0  0  0  0  0  0  0  0  0
   40.3970   35.9760   28.1600 S   0  0  0  0  0  0  0  0  0  0  0  0
  3  7  1  0
  3  5  1  0
  4  2  1  0
  4  1  2  0
  5  8  1  0
  5 10  1  0
  6  4  1  0
  7  6  1  0
  9  3  1  0
  9  5  1  0
 10  2  1  0
M  END
$$$$

     RDKit          3D

  6  6  0  0  0  0  0  0  0  0999 V2000
   42.5200   35.3730   29.1920 C   0  0  0  0  0  0  0  0  0  0  0  0
   41.4960   35.0940   27.2660 C   0  0  0  0  0  0  0  0  0  0  0  0
   40.9580   34.3760   26.0650 C   0  0  0  0  0  0  0  0  0  0  0  0
   42.0220   36.4350   27.2800 N   0  0  0  0  0  0  0  0  0  0  0  0
   42.6170   36.5390   28.4790 C   0  0  0  0  0  0  0  0  0  0  0  0
   41.6750   34.5140   28.5520 N   0  0  0  0  0  0  0  0  0  0  0  0
  2  4  2  0
  2  6  1  0
  3  2  1  0
  4  5  1  0
  5  1  1  0
  6  1  1  0
M  END
$$$$

     RDKit          3D

  8  7  0  0  0  0  0  0  0  0999 V2000
   43.3820   34.6580   27.1650 F   0  0  0  0  0  0  0  0  0  0  0  0
   41.2840   35.4050   26.6930 C   0  0  0  0  0  0  0  0  0  0  0  0
   42.3990   35.3970   27.7760 C   0  0  0  0  0  0  0  0  0  0  0  0
   42.9310   36.7720   28.1530 C   0  0  0  0  0  0  0  0  0  0  0  0
   41.9010   34.7090   29.0420 C   0  0  0  0  0  0  0  0  0  0  0  0
   40.0170   34.8940   27.0450 O   0  0  0  0  0  0  0  0  0  0  0  0
   41.7010   34.6830   25.4100 C   0  0  0  0  0  0  0  0  0  0  0  0
   42.9550   34.8020   30.0350 N   0  0  0  0  0  0  0  0  0  0  0  0
  1  3  1  0
  2  7  1  0
  2  6  1  0
  2  3  1  0
  3  4  1  0
  3  5  1  0
  5  8  1  0
M  END
$$$$

     RDKit          3D

 15 15  0  0  0  0  0  0  0  0999 V2000
   41.4730   34.0110   29.1150 C   0  0  0  0  0  0  0  0  0  0  0  0
   41.0690   38.8160   28.0010 O   0  0  0  0  0  0  0  0  0  0  0  0
   40.3880   36.8520   24.7890 C   0  0  0  0  0  0  0  0  0  0  0  0
   45.2610   36.3890   28.2750 C   0  0  0  0  0  0  0  0  0  0  0  0
   41.0400   36.3910   27.2120 C   0  0  0  0  0  0  0  0  0  0  0  0
   43.4430   34.5000   26.9960 O   0  0  0  0  0  0  0  0  0  0  0  0
   42.9620   35.3610   27.7750 C   0  0  0  0  0  0  0  0  0  0  0  0
   39.8360   34.5600   25.7140 C   0  0  0  0  0  0  0  0  0  0  0  0
   43.2300   37.7500   27.8680 C   0  0  0  0  0  0  0  0  0  0  0  0
   43.7780   36.4250   28.0590 N   0  0  0  0  0  0  0  0  0  0  0  0
   41.5520   35.2600   28.2410 N   0  0  0  0  0  0  0  0  0  0  0  0
   41.7150   37.5010   28.1330 C   0  0  0  0  0  0  0  0  0  0  0  0
   40.7540   35.7840   25.8100 C   0  0  0  0  0  0  0  0  0  0  0  0
   42.4890   33.2700   29.4630 N   0  0  0  0  0  0  0  0  0  0  0  0
   40.2010   33.6070   29.6750 C   0  0  0  0  0  0  0  0  0  0  0  0
  1 14  2  0
  1 15  1  0
  3 13  1  0
  5 13  1  0
  5 12  1  0
  5 11  1  0
  6  7  2  0
  7 10  1  0
  7 11  1  0
  8 13  1  0
  9 10  1  0
  9 12  1  0
 10  4  1  0
 11  1  1  0
 12  2  1  0
M  END
$$$$

     RDKit          3D

 20 22  0  0  0  0  0  0  0  0999 V2000
   42.7040   38.4580   23.3710 O   0  0  0  0  0  0  0  0  0  0  0  0
   41.7830   38.4620   24.0750 C   0  0  0  0  0  0  0  0  0  0  0  0
   41.8560   39.2240   27.9740 O   0  0  0  0  0  0  0  0  0  0  0  0
   40.4820   38.8770   23.6930 N   0  0  0  0  0  0  0  0  0  0  0  0
   41.6230   37.4390   25.1470 C   0  0  0  0  0  0  0  0  0  0  0  0
   42.9370   39.2760   26.9860 C   0  0  0  0  0  0  0  0  0  0  0  0
   43.1970   37.6410   27.0060 O   0  0  0  0  0  0  0  0  0  0  0  0
   39.2940   34.6620   24.2060 C   0  0  0  0  0  0  0  0  0  0  0  0
   41.2250   34.5820   29.0240 C   0  0  0  0  0  0  0  0  0  0  0  0
   40.3440   36.7880   24.8000 C   0  0  0  0  0  0  0  0  0  0  0  0
   40.5820   35.0520   26.1700 C   0  0  0  0  0  0  0  0  0  0  0  0
   40.0990   35.5420   25.0960 C   0  0  0  0  0  0  0  0  0  0  0  0
   43.3170   38.5550   26.1730 C   0  0  0  0  0  0  0  0  0  0  0  0
   41.4940   35.7130   27.0640 C   0  0  0  0  0  0  0  0  0  0  0  0
   41.6230   33.4390   29.9630 C   0  0  0  0  0  0  0  0  0  0  0  0
   39.8050   34.3310   28.6170 O   0  0  0  0  0  0  0  0  0  0  0  0
   41.4610   36.0340   29.2800 C   0  0  0  0  0  0  0  0  0  0  0  0
   41.9470   37.0240   26.3380 C   0  0  0  0  0  0  0  0  0  0  0  0
   39.5320   37.6450   23.8500 C   0  0  0  0  0  0  0  0  0  0  0  0
   42.0920   35.1770   27.9990 N   0  0  0  0  0  0  0  0  0  0  0  0
  1  2  2  0
  2  5  1  0
  4 19  1  0
  4  2  1  0
  5 18  1  0
  6  3  1  0
  8 12  1  0
  9 17  1  0
  9 15  1  0
 10 12  1  0
 10  5  2  0
 11 14  1  0
 12 11  2  0
 13  6  1  0
 13  7  1  0
 14 20  1  0
 16  9  1  0
 18  7  1  0
 18 14  2  0
 19 10  1  0
 20  9  1  0
 20 17  1  0
M  END
$$$$

     RDKit          3D

 19 19  0  0  0  0  0  0  0  0999 V2000
   37.3290   36.9730   24.0960 C   0  0  0  0  0  0  0  0  0  0  0  0
   40.1200   33.7980   25.3680 O   0  0  0  0  0  0  0  0  0  0  0  0
   38.5030   36.1630   22.0410 C   0  0  0  0  0  0  0  0  0  0  0  0
   44.9430   35.5950   29.4960 C   0  0  0  0  0  0  0  0  0  0  0  0
   39.7210   35.9100   22.7620 C   0  0  0  0  0  0  0  0  0  0  0  0
   41.4300   35.7400   26.7440 S   0  0  0  0  0  0  0  0  0  0  0  0
   37.3150   36.7150   22.6890 C   0  0  0  0  0  0  0  0  0  0  0  0
   43.0190   34.2470   28.1720 C   0  0  0  0  0  0  0  0  0  0  0  0
   45.8240   34.8170   30.1160 F   0  0  0  0  0  0  0  0  0  0  0  0
   45.3810   35.8730   28.2450 F   0  0  0  0  0  0  0  0  0  0  0  0
   40.4390   35.4440   27.7250 O   0  0  0  0  0  0  0  0  0  0  0  0
   38.5550   36.6660   24.8590 C   0  0  0  0  0  0  0  0  0  0  0  0
   44.4880   36.6910   30.1330 N   0  0  0  0  0  0  0  0  0  0  0  0
   42.0150   35.0040   24.3160 O   0  0  0  0  0  0  0  0  0  0  0  0
   42.2340   36.9540   27.1890 O   0  0  0  0  0  0  0  0  0  0  0  0
   39.7240   35.9770   24.2360 C   0  0  0  0  0  0  0  0  0  0  0  0
   42.6800   34.5980   26.8340 N   0  0  0  0  0  0  0  0  0  0  0  0
   40.9200   35.3780   25.0850 S   0  0  0  0  0  0  0  0  0  0  0  0
   43.5610   34.7390   29.4020 C   0  0  0  0  0  0  0  0  0  0  0  0
  1 12  1  0
  3  7  1  0
  3  5  2  0
  4  9  1  0
  4 13  1  0
  5 16  1  0
  6 17  1  0
  6 15  2  0
  6 11  2  0
  7  1  2  0
  8 19  1  0
 10  4  1  0
 14 18  2  0
 16 12  2  0
 16 18  1  0
 17  8  1  0
 18  2  2  0
 18  6  1  0
 19  4  1  0
M  END
$$$$

     RDKit          3D

 13 14  0  0  0  0  0  0  0  0999 V2000
   43.7960   35.4500   28.0050 C   0  0  0  0  0  0  0  0  0  0  0  0
   40.8900   34.2320   28.5970 C   0  0  0  0  0  0  0  0  0  0  0  0
   40.5220   35.8790   27.8710 S   0  0  0  0  0  0  0  0  0  0  0  0
   44.4160   34.2010   28.6290 C   0  0  0  0  0  0  0  0  0  0  0  0
   43.4770   36.8780   25.2500 O   0  0  0  0  0  0  0  0  0  0  0  0
   40.6780   33.4770   29.8480 C   0  0  0  0  0  0  0  0  0  0  0  0
   43.4810   33.6420   29.5160 N   0  0  0  0  0  0  0  0  0  0  0  0
   42.0760   33.9410   29.5070 C   0  0  0  0  0  0  0  0  0  0  0  0
   43.7870   36.5900   28.9600 N   0  0  0  0  0  0  0  0  0  0  0  0
   41.8830   35.3300   24.3560 O   0  0  0  0  0  0  0  0  0  0  0  0
   41.1330   36.8550   26.4730 C   0  0  0  0  0  0  0  0  0  0  0  0
   42.9950   34.9310   26.7680 C   0  0  0  0  0  0  0  0  0  0  0  0
   42.4580   35.8910   25.6240 P   0  0  0  0  0  0  0  0  0  0  0  0
  1  4  1  0
  1  9  1  0
  2  8  1  0
  2  6  1  0
  3  2  1  0
  4  7  1  0
  5 13  1  0
  8  7  1  0
  8  6  1  0
 11  3  1  0
 12  1  1  0
 13 10  2  0
 13 11  1  0
 13 12  1  0
M  END
$$$$

     RDKit          3D

 15 15  0  0  0  0  0  0  0  0999 V2000
   40.6100   34.7620   25.0120 C   0  0  0  0  0  0  0  0  0  0  0  0
   41.6540   34.0400   28.8260 C   0  0  0  0  0  0  0  0  0  0  0  0
   39.2930   36.5730   24.4430 O   0  0  0  0  0  0  0  0  0  0  0  0
   44.6740   37.2460   26.5820 O   0  0  0  0  0  0  0  0  0  0  0  0
   41.2750   33.4080   30.1000 C   0  0  0  0  0  0  0  0  0  0  0  0
   43.6240   37.5720   26.0650 C   0  0  0  0  0  0  0  0  0  0  0  0
   40.8210   34.3960   28.0380 O   0  0  0  0  0  0  0  0  0  0  0  0
   43.4480   34.8610   27.2890 N   0  0  0  0  0  0  0  0  0  0  0  0
   42.5260   36.5420   25.8970 C   0  0  0  0  0  0  0  0  0  0  0  0
   42.5690   35.2170   26.3170 C   0  0  0  0  0  0  0  0  0  0  0  0
   40.3170   36.1520   24.9700 C   0  0  0  0  0  0  0  0  0  0  0  0
   43.1160   34.1930   28.5570 C   0  0  0  0  0  0  0  0  0  0  0  0
   43.4400   38.7440   25.8070 O   0  0  0  0  0  0  0  0  0  0  0  0
   41.3200   37.0400   25.4480 C   0  0  0  0  0  0  0  0  0  0  0  0
   41.7120   34.2920   25.6770 C   0  0  0  0  0  0  0  0  0  0  0  0
  1 15  2  0
  2  5  1  0
  3 11  2  0
  6  4  1  0
  7  2  2  0
  8 12  1  0
  9  6  1  0
  9 10  1  0
 10  8  1  0
 11  1  1  0
 11 14  1  0
 12  2  1  0
 13  6  2  0
 14  9  1  0
 15 10  1  0
M  END
$$$$

     RDKit          3D

 18 20  0  0  0  0  0  0  0  0999 V2000
   42.0560   36.0050   28.8340 C   0  0  0  0  0  0  0  0  0  0  0  0
   44.1920   36.0000   27.6210 C   0  0  0  0  0  0  0  0  0  0  0  0
   42.0920   35.7870   25.7960 C   0  0  0  0  0  0  0  0  0  0  0  0
   40.1610   33.2820   25.7040 O   0  0  0  0  0  0  0  0  0  0  0  0
   41.2700   36.2010   24.6150 C   0  0  0  0  0  0  0  0  0  0  0  0
   39.8650   34.6390   26.0410 C   0  0  0  0  0  0  0  0  0  0  0  0
   45.1300   35.0330   27.8040 C   0  0  0  0  0  0  0  0  0  0  0  0
   40.9100   35.7920   28.0160 C   0  0  0  0  0  0  0  0  0  0  0  0
   39.3310   34.9930   23.7540 O   0  0  0  0  0  0  0  0  0  0  0  0
   43.2780   35.4970   28.5520 O   0  0  0  0  0  0  0  0  0  0  0  0
   42.1730   37.5030   29.1520 C   0  0  0  0  0  0  0  0  0  0  0  0
   41.4210   37.6700   24.5890 O   0  0  0  0  0  0  0  0  0  0  0  0
   44.1720   38.9120   27.7570 O   0  0  0  0  0  0  0  0  0  0  0  0
   43.0770   38.0590   28.0410 C   0  0  0  0  0  0  0  0  0  0  0  0
   39.8290   35.6580   24.8930 C   0  0  0  0  0  0  0  0  0  0  0  0
   41.1600   35.0660   26.7610 C   0  0  0  0  0  0  0  0  0  0  0  0
   39.8860   36.3470   28.3740 O   0  0  0  0  0  0  0  0  0  0  0  0
   44.4350   37.4060   28.0740 C   0  0  0  0  0  0  0  0  0  0  0  0
  1  8  1  0
  1 11  1  0
  2  7  1  0
  2 18  1  0
  2 10  1  0
  3 16  1  0
  5 12  1  0
  5 15  1  0
  5  3  1  0
  6  4  1  0
  6 16  1  0
  8 17  2  0
 10  1  1  0
 13 14  1  0
 14 18  1  0
 14 11  1  0
 15  9  1  0
 15  6  1  0
 16  8  1  0
 18 13  1  0
M  END
$$$$
