
     RDKit          3D

  9  8  0  0  0  0  0  0  0  0999 V2000
   41.7310   41.5040   28.1100 C   0  0  0  0  0  0  0  0  0  0  0  0
   40.7070   39.6830   28.9710 N   0  0  0  0  0  0  0  0  0  0  0  0
   38.4170   40.2730   24.5530 O   0  0  0  0  0  0  0  0  0  0  0  0
   39.7860   39.4930   27.9090 C   0  0  0  0  0  0  0  0  0  0  0  0
   40.4410   42.0300   27.8610 C   0  0  0  0  0  0  0  0  0  0  0  0
   39.7760   40.1080   26.4920 C   0  0  0  0  0  0  0  0  0  0  0  0
   37.7740   38.9010   26.1380 O   0  0  0  0  0  0  0  0  0  0  0  0
   38.5400   39.7370   25.6730 C   0  0  0  0  0  0  0  0  0  0  0  0
   39.8420   41.6210   26.5440 C   0  0  0  0  0  0  0  0  0  0  0  0
  3  8  2  0
  4  2  1  0
  5  1  1  0
  6  9  1  0
  6  4  1  0
  8  7  1  0
  8  6  1  0
  9  5  1  0
M  END
$$$$

     RDKit          3D

 10  9  0  0  0  0  0  0  0  0999 V2000
   37.8790   38.9290   26.8730 C   0  0  0  0  0  0  0  0  0  0  0  0
   38.1460   40.4950   24.9050 C   0  0  0  0  0  0  0  0  0  0  0  0
   38.8550   39.9840   26.1420 C   0  0  0  0  0  0  0  0  0  0  0  0
   40.1470   39.1450   28.8080 O   0  0  0  0  0  0  0  0  0  0  0  0
   39.1970   41.2260   27.0270 C   0  0  0  0  0  0  0  0  0  0  0  0
   40.2400   39.3200   25.6120 N   0  0  0  0  0  0  0  0  0  0  0  0
   36.8410   41.1020   25.2160 N   0  0  0  0  0  0  0  0  0  0  0  0
   40.3490   41.5150   29.8090 O   0  0  0  0  0  0  0  0  0  0  0  0
   41.7720   40.7780   27.9390 O   0  0  0  0  0  0  0  0  0  0  0  0
   40.3140   40.6890   28.4640 P   0  0  0  0  0  0  0  0  0  0  0  0
  2  7  1  0
  2  3  1  0
  3  1  1  0
  3  5  1  0
  5 10  1  0
  6  3  1  0
  9 10  2  0
 10  4  1  0
 10  8  1  0
M  END
$$$$

     RDKit          3D

 23 25  0  0  0  0  0  0  0  0999 V2000
   41.7830   40.2210   30.0380 C   0  0  0  0  0  0  0  0  0  0  0  0
   38.8610   39.2380   28.0690 C   0  0  0  0  0  0  0  0  0  0  0  0
   45.2680   39.6890   28.4260 N   0  0  0  0  0  0  0  0  0  0  0  0
   37.3330   40.7870   27.1100 C   0  0  0  0  0  0  0  0  0  0  0  0
   43.3000   42.4180   29.6490 O   0  0  0  0  0  0  0  0  0  0  0  0
   39.8940   40.0010   28.5090 C   0  0  0  0  0  0  0  0  0  0  0  0
   37.7860   38.7310   25.9230 N   0  0  0  0  0  0  0  0  0  0  0  0
   45.6310   42.1250   29.6310 N   0  0  0  0  0  0  0  0  0  0  0  0
   34.5660   38.7850   24.0090 C   0  0  0  0  0  0  0  0  0  0  0  0
   44.2320   40.2750   29.0270 C   0  0  0  0  0  0  0  0  0  0  0  0
   36.2560   41.0610   26.2860 C   0  0  0  0  0  0  0  0  0  0  0  0
   35.9740   40.1300   25.2980 N   0  0  0  0  0  0  0  0  0  0  0  0
   36.1830   38.2750   23.4250 S   0  0  0  0  0  0  0  0  0  0  0  0
   42.9600   39.6720   29.1650 N   0  0  0  0  0  0  0  0  0  0  0  0
   40.4880   38.2260   30.0070 C   0  0  0  0  0  0  0  0  0  0  0  0
   38.5760   38.0450   28.7340 C   0  0  0  0  0  0  0  0  0  0  0  0
   34.7020   40.2180   24.5670 C   0  0  0  0  0  0  0  0  0  0  0  0
   39.3230   37.4930   29.6880 C   0  0  0  0  0  0  0  0  0  0  0  0
   40.7250   39.4630   29.4660 C   0  0  0  0  0  0  0  0  0  0  0  0
   33.7170   41.0240   25.4380 C   0  0  0  0  0  0  0  0  0  0  0  0
   44.3320   41.6850   29.4870 C   0  0  0  0  0  0  0  0  0  0  0  0
   36.8030   39.0280   25.0470 C   0  0  0  0  0  0  0  0  0  0  0  0
   37.9640   39.6460   26.9720 C   0  0  0  0  0  0  0  0  0  0  0  0
  2  6  2  0
  2 16  1  0
  3 10  2  0
  6 19  1  0
  7 23  1  0
  9 17  1  0
 10 14  1  0
 10 21  1  0
 11  4  1  0
 12 11  1  0
 13  9  1  0
 13 22  1  0
 14  1  1  0
 16 18  2  0
 17 12  1  0
 17 20  1  0
 18 15  1  0
 19 15  2  0
 19  1  1  0
 21  8  1  0
 21  5  2  0
 22 12  1  0
 22  7  2  0
 23  4  2  0
 23  2  1  0
M  END
$$$$

     RDKit          3D

 13 13  0  0  0  0  0  0  0  0999 V2000
   41.4460   41.8510   28.0580 C   0  0  0  0  0  0  0  0  0  0  0  0
   37.8250   38.7590   25.8040 S   0  0  0  0  0  0  0  0  0  0  0  0
   38.6850   39.5680   27.2150 C   0  0  0  0  0  0  0  0  0  0  0  0
   39.7410   40.5420   27.0240 C   0  0  0  0  0  0  0  0  0  0  0  0
   40.5870   40.5940   28.3270 C   0  0  0  0  0  0  0  0  0  0  0  0
   42.8790   41.4620   27.9320 C   0  0  0  0  0  0  0  0  0  0  0  0
   44.8650   42.3620   28.3110 N   0  0  0  0  0  0  0  0  0  0  0  0
   41.5560   39.4030   28.4130 N   0  0  0  0  0  0  0  0  0  0  0  0
   43.5640   42.8020   26.0800 O   0  0  0  0  0  0  0  0  0  0  0  0
   43.7520   42.1140   27.1440 C   0  0  0  0  0  0  0  0  0  0  0  0
   41.0320   43.0920   27.9940 O   0  0  0  0  0  0  0  0  0  0  0  0
   42.9680   39.9340   28.4420 C   0  0  0  0  0  0  0  0  0  0  0  0
   40.6090   40.2190   25.8820 O   0  0  0  0  0  0  0  0  0  0  0  0
  1 11  1  0
  1  5  1  0
  2  3  1  0
  4 13  1  0
  4  3  1  0
  5  4  1  0
  5  8  1  0
  6 10  1  0
  6  1  1  0
  6 12  1  0
  8 12  1  0
  9 10  2  0
 10  7  1  0
M  END
$$$$

     RDKit          3D

 17 18  0  0  0  0  0  0  0  0999 V2000
   42.4960   41.0090   27.4520 C   0  0  0  0  0  0  0  0  0  0  0  0
   36.8880   39.0920   25.1640 C   0  0  0  0  0  0  0  0  0  0  0  0
   37.7110   38.1380   25.6730 N   0  0  0  0  0  0  0  0  0  0  0  0
   37.0150   40.1920   25.9480 N   0  0  0  0  0  0  0  0  0  0  0  0
   43.5810   40.4000   27.1630 N   0  0  0  0  0  0  0  0  0  0  0  0
   40.2010   39.9100   28.3350 C   0  0  0  0  0  0  0  0  0  0  0  0
   38.0950   39.9390   26.7540 C   0  0  0  0  0  0  0  0  0  0  0  0
   40.1640   37.9140   29.8710 C   0  0  0  0  0  0  0  0  0  0  0  0
   39.0730   38.0720   27.7370 N   0  0  0  0  0  0  0  0  0  0  0  0
   36.2430   41.3340   25.9600 N   0  0  0  0  0  0  0  0  0  0  0  0
   39.5080   38.9230   28.9970 C   0  0  0  0  0  0  0  0  0  0  0  0
   39.8840   36.6140   29.1650 C   0  0  0  0  0  0  0  0  0  0  0  0
   38.3970   38.6120   26.7440 C   0  0  0  0  0  0  0  0  0  0  0  0
   41.7600   40.5180   28.8490 S   0  0  0  0  0  0  0  0  0  0  0  0
   39.3550   40.9960   27.2980 S   0  0  0  0  0  0  0  0  0  0  0  0
   35.7060   42.1890   25.9180 C   0  0  0  0  0  0  0  0  0  0  0  0
   42.0800   41.9530   26.8280 O   0  0  0  0  0  0  0  0  0  0  0  0
  1 14  1  0
  2  3  1  0
  2  4  1  0
  3 13  2  0
  4 10  1  0
  4  7  1  0
  5  1  1  0
  6 14  1  0
  6 11  1  0
  7 13  1  0
  7 15  1  0
  9 11  1  0
 11  8  1  0
 12  8  1  0
 13  9  1  0
 15  6  1  0
 16 10  3  0
 17  1  2  0
M  END
$$$$

     RDKit          3D

  4  3  0  0  0  0  0  0  0  0999 V2000
   41.7240   40.6000   28.5200 C   0  0  0  0  0  0  0  0  0  0  0  0
   40.8280   39.6350   27.7360 C   0  0  0  0  0  0  0  0  0  0  0  0
   40.1220   38.7680   28.7120 N   0  0  0  0  0  0  0  0  0  0  0  0
   39.8130   40.4800   26.9720 C   0  0  0  0  0  0  0  0  0  0  0  0
  2  1  1  0
  2  3  1  0
  4  2  1  0
M  END
$$$$

     RDKit          3D

 15 16  0  0  0  0  0  0  0  0999 V2000
   40.4600   42.5560   25.5520 C   0  0  0  0  0  0  0  0  0  0  0  0
   41.1350   40.1790   25.0810 C   0  0  0  0  0  0  0  0  0  0  0  0
   39.6990   41.8420   23.3870 C   0  0  0  0  0  0  0  0  0  0  0  0
   40.5310   41.1450   26.0910 C   0  0  0  0  0  0  0  0  0  0  0  0
   36.9570   41.8920   25.8530 O   0  0  0  0  0  0  0  0  0  0  0  0
   40.3600   39.8560   29.2180 C   0  0  0  0  0  0  0  0  0  0  0  0
   41.3590   41.2780   27.3880 C   0  0  0  0  0  0  0  0  0  0  0  0
   41.9520   42.3300   27.8610 O   0  0  0  0  0  0  0  0  0  0  0  0
   41.4860   39.9850   28.1720 C   0  0  0  0  0  0  0  0  0  0  0  0
   38.3700   42.0220   25.6350 C   0  0  0  0  0  0  0  0  0  0  0  0
   38.2800   39.8160   27.2830 C   0  0  0  0  0  0  0  0  0  0  0  0
   37.6090   38.8380   26.5800 O   0  0  0  0  0  0  0  0  0  0  0  0
   39.0450   38.7530   28.5290 S   0  0  0  0  0  0  0  0  0  0  0  0
   39.2070   42.5540   24.6650 C   0  0  0  0  0  0  0  0  0  0  0  0
   39.1040   40.7840   26.3860 C   0  0  0  0  0  0  0  0  0  0  0  0
  1  4  1  0
  4  2  1  0
  4 15  1  0
  4  7  1  0
  7  8  1  0
  7  9  1  0
  9  6  1  0
 10  5  1  0
 10 15  1  0
 11 12  1  0
 11 13  1  0
 13  6  1  0
 14  3  1  0
 14  1  1  0
 14 10  1  0
 15 11  1  0
M  END
$$$$

     RDKit          3D

  8  7  0  0  0  0  0  0  0  0999 V2000
   40.1230   39.9440   24.9830 O   0  0  0  0  0  0  0  0  0  0  0  0
   39.5180   41.6150   26.3380 O   0  0  0  0  0  0  0  0  0  0  0  0
   41.3140   39.8970   27.4280 C   0  0  0  0  0  0  0  0  0  0  0  0
   36.8800   40.0380   26.5330 C   0  0  0  0  0  0  0  0  0  0  0  0
   38.2980   39.4820   26.4570 C   0  0  0  0  0  0  0  0  0  0  0  0
   40.0570   39.8880   28.3280 N   0  0  0  0  0  0  0  0  0  0  0  0
   38.8460   39.1220   27.8660 C   0  0  0  0  0  0  0  0  0  0  0  0
   39.3460   40.4100   25.8360 C   0  0  0  0  0  0  0  0  0  0  0  0
  1  8  2  0
  3  6  1  0
  5  4  1  0
  5  7  1  0
  7  6  1  0
  8  2  1  0
  8  5  1  0
M  END
$$$$

     RDKit          3D

  5  4  0  0  0  0  0  0  0  0999 V2000
   39.0310   39.4870   27.9610 C   0  0  0  0  0  0  0  0  0  0  0  0
   41.6450   39.6140   27.3530 C   0  0  0  0  0  0  0  0  0  0  0  0
   40.1490   39.8820   26.9450 C   0  0  0  0  0  0  0  0  0  0  0  0
   39.4920   39.2490   29.0890 O   0  0  0  0  0  0  0  0  0  0  0  0
   37.8230   39.4280   27.6450 O   0  0  0  0  0  0  0  0  0  0  0  0
  1  4  1  0
  3  2  1  0
  3  1  1  0
  5  1  2  0
M  END
$$$$

     RDKit          3D

 21 21  0  0  0  0  0  0  0  0999 V2000
   33.6880   40.2910   25.6510 C   0  0  0  0  0  0  0  0  0  0  0  0
   39.5410   39.4320   27.9110 C   0  0  0  0  0  0  0  0  0  0  0  0
   41.3650   41.1680   27.8360 C   0  0  0  0  0  0  0  0  0  0  0  0
   37.9280   39.0940   26.1220 N   0  0  0  0  0  0  0  0  0  0  0  0
   39.6970   37.7230   29.6650 C   0  0  0  0  0  0  0  0  0  0  0  0
   38.4650   38.7820   27.3540 C   0  0  0  0  0  0  0  0  0  0  0  0
   35.9970   41.1680   25.8090 C   0  0  0  0  0  0  0  0  0  0  0  0
   39.9430   40.8170   27.5140 C   0  0  0  0  0  0  0  0  0  0  0  0
   31.7000   41.7330   25.2870 N   0  0  0  0  0  0  0  0  0  0  0  0
   31.7210   39.6580   24.6600 O   0  0  0  0  0  0  0  0  0  0  0  0
   34.5130   41.4720   25.8340 C   0  0  0  0  0  0  0  0  0  0  0  0
   32.3160   40.4950   25.1850 C   0  0  0  0  0  0  0  0  0  0  0  0
   36.3950   40.2240   24.7190 C   0  0  0  0  0  0  0  0  0  0  0  0
   37.9150   37.8010   28.1450 C   0  0  0  0  0  0  0  0  0  0  0  0
   40.2100   38.8180   28.9250 C   0  0  0  0  0  0  0  0  0  0  0  0
   33.0610   38.0430   26.3510 C   0  0  0  0  0  0  0  0  0  0  0  0
   36.7630   37.8190   24.3950 O   0  0  0  0  0  0  0  0  0  0  0  0
   38.4480   37.3600   29.2080 C   0  0  0  0  0  0  0  0  0  0  0  0
   36.8030   38.9450   25.2340 C   0  0  0  0  0  0  0  0  0  0  0  0
   34.1750   38.9160   25.9110 C   0  0  0  0  0  0  0  0  0  0  0  0
   42.1900   40.1110   28.1190 O   0  0  0  0  0  0  0  0  0  0  0  0
  1 11  1  0
  1 20  1  0
  2 15  1  0
  3 21  1  0
  4  6  1  0
  6  2  2  0
  6 14  1  0
  7 11  1  0
  8  3  1  0
  8  2  1  0
 10 12  2  0
 12  9  1  0
 12  1  1  0
 13 19  1  0
 13  7  1  0
 14 18  2  0
 15  5  2  0
 17 19  2  0
 18  5  1  0
 19  4  1  0
 20 16  1  0
M  END
$$$$

     RDKit          3D

 17 17  0  0  0  0  0  0  0  0999 V2000
   34.9270   39.3460   24.6070 C   0  0  0  0  0  0  0  0  0  0  0  0
   40.5220   40.6650   28.2700 C   0  0  0  0  0  0  0  0  0  0  0  0
   36.0800   41.4190   25.3990 O   0  0  0  0  0  0  0  0  0  0  0  0
   41.3630   38.8630   28.8700 C   0  0  0  0  0  0  0  0  0  0  0  0
   38.4550   39.9850   26.0910 P   0  0  0  0  0  0  0  0  0  0  0  0
   42.3090   39.6350   29.6750 N   0  0  0  0  0  0  0  0  0  0  0  0
   40.0360   39.5080   28.4620 C   0  0  0  0  0  0  0  0  0  0  0  0
   37.5460   40.3270   27.1830 O   0  0  0  0  0  0  0  0  0  0  0  0
   33.9700   40.4750   24.2970 C   0  0  0  0  0  0  0  0  0  0  0  0
   42.2590   40.9500   29.6770 C   0  0  0  0  0  0  0  0  0  0  0  0
   39.6990   39.3190   27.0050 O   0  0  0  0  0  0  0  0  0  0  0  0
   33.3090   41.0230   25.1630 O   0  0  0  0  0  0  0  0  0  0  0  0
   39.2470   40.9940   25.1420 O   0  0  0  0  0  0  0  0  0  0  0  0
   41.8160   41.2270   28.4160 C   0  0  0  0  0  0  0  0  0  0  0  0
   33.9030   40.9120   23.0800 O   0  0  0  0  0  0  0  0  0  0  0  0
   36.2140   40.1360   24.7560 C   0  0  0  0  0  0  0  0  0  0  0  0
   37.4900   39.3740   24.9260 O   0  0  0  0  0  0  0  0  0  0  0  0
  1 16  1  0
  2 14  1  0
  2  7  1  0
  4  6  1  0
  5 13  2  0
  5 11  1  0
  5  8  1  0
  6 10  1  0
  7 11  1  0
  7  4  1  0
  9  1  1  0
  9 12  1  0
 14 10  1  0
 15  9  2  0
 16 17  1  0
 16  3  2  0
 17  5  1  0
M  END
$$$$

     RDKit          3D

 12 11  0  0  0  0  0  0  0  0999 V2000
   40.9050   40.5280   27.3280 C   0  0  0  0  0  0  0  0  0  0  0  0
   40.0810   40.3290   28.5530 C   0  0  0  0  0  0  0  0  0  0  0  0
   38.2030   39.8510   25.9500 C   0  0  0  0  0  0  0  0  0  0  0  0
   39.3460   39.3050   28.5240 O   0  0  0  0  0  0  0  0  0  0  0  0
   43.0800   41.2760   28.3800 O   0  0  0  0  0  0  0  0  0  0  0  0
   42.5660   41.5560   25.1640 O   0  0  0  0  0  0  0  0  0  0  0  0
   42.3400   40.4630   27.8830 C   0  0  0  0  0  0  0  0  0  0  0  0
   39.5510   39.4820   25.3550 C   0  0  0  0  0  0  0  0  0  0  0  0
   40.6930   40.2770   25.8860 N   0  0  0  0  0  0  0  0  0  0  0  0
   40.2720   41.1060   29.5240 O   0  0  0  0  0  0  0  0  0  0  0  0
   38.1100   40.9700   26.4910 O   0  0  0  0  0  0  0  0  0  0  0  0
   41.1620   41.3490   25.0030 O   0  0  0  0  0  0  0  0  0  0  0  0
  1  7  1  0
  1  2  1  0
  2 10  1  0
  3 11  2  0
  4  2  2  0
  7  5  2  0
  8  9  1  0
  8  3  1  0
  9  1  1  0
 12  6  1  0
 12  9  1  0
M  END
$$$$

     RDKit          3D

 11 10  0  0  0  0  0  0  0  0999 V2000
   41.3370   39.3440   26.7460 N   0  0  0  0  0  0  0  0  0  0  0  0
   37.9840   43.5300   25.0030 O   0  0  0  0  0  0  0  0  0  0  0  0
   38.6970   39.0540   27.4760 C   0  0  0  0  0  0  0  0  0  0  0  0
   35.8100   42.5020   25.5660 C   0  0  0  0  0  0  0  0  0  0  0  0
   39.0880   39.1740   25.9950 C   0  0  0  0  0  0  0  0  0  0  0  0
   38.0100   39.9460   25.2540 C   0  0  0  0  0  0  0  0  0  0  0  0
   39.4490   40.0520   28.1940 O   0  0  0  0  0  0  0  0  0  0  0  0
   37.2960   42.4950   25.4440 C   0  0  0  0  0  0  0  0  0  0  0  0
   40.4310   40.0130   25.8960 C   0  0  0  0  0  0  0  0  0  0  0  0
   37.8390   41.2850   25.9600 C   0  0  0  0  0  0  0  0  0  0  0  0
   40.7380   39.9890   24.4950 O   0  0  0  0  0  0  0  0  0  0  0  0
  2  8  1  0
  3  7  1  0
  5  6  1  0
  5  3  1  0
  6 10  1  0
  8  4  1  0
  8 10  1  0
  9 11  1  0
  9  5  1  0
  9  1  1  0
M  END
$$$$

     RDKit          3D

  6  5  0  0  0  0  0  0  0  0999 V2000
   39.7320   40.5510   26.7790 C   0  0  0  0  0  0  0  0  0  0  0  0
   39.7730   40.2360   24.2190 O   0  0  0  0  0  0  0  0  0  0  0  0
   37.5390   39.4720   27.3160 N   0  0  0  0  0  0  0  0  0  0  0  0
   39.8380   39.9840   25.3860 C   0  0  0  0  0  0  0  0  0  0  0  0
   38.9130   39.4970   27.4740 C   0  0  0  0  0  0  0  0  0  0  0  0
   39.6910   38.6590   28.2290 N   0  0  0  0  0  0  0  0  0  0  0  0
  1  5  1  0
  2  4  2  0
  3  5  2  0
  4  1  1  0
  5  6  1  0
M  END
$$$$

     RDKit          3D

 13 13  0  0  0  0  0  0  0  0999 V2000
   38.9820   39.9980   26.3210 N   0  0  0  0  0  0  0  0  0  0  0  0
   40.1910   40.4020   26.9690 C   0  0  0  0  0  0  0  0  0  0  0  0
   38.8870   40.2240   22.7350 O   0  0  0  0  0  0  0  0  0  0  0  0
   37.8310   38.7440   24.9300 O   0  0  0  0  0  0  0  0  0  0  0  0
   40.8570   40.0650   29.3980 N   0  0  0  0  0  0  0  0  0  0  0  0
   38.4340   39.8130   25.0940 C   0  0  0  0  0  0  0  0  0  0  0  0
   40.0500   41.6630   24.4450 C   0  0  0  0  0  0  0  0  0  0  0  0
   39.9840   40.0160   28.4340 C   0  0  0  0  0  0  0  0  0  0  0  0
   40.4430   42.7730   24.7650 O   0  0  0  0  0  0  0  0  0  0  0  0
   38.7420   39.5400   28.5470 N   0  0  0  0  0  0  0  0  0  0  0  0
   41.2340   40.9430   26.4500 O   0  0  0  0  0  0  0  0  0  0  0  0
   38.6980   40.9000   24.0140 C   0  0  0  0  0  0  0  0  0  0  0  0
   38.1250   39.5020   27.3290 C   0  0  0  0  0  0  0  0  0  0  0  0
  1  2  1  0
  1 13  1  0
  2  8  1  0
  4  6  2  0
  6  1  1  0
  7  9  2  0
  8 10  2  0
  8  5  1  0
 11  2  2  0
 12  3  1  0
 12  7  1  0
 12  6  1  0
 13 10  1  0
M  END
$$$$

     RDKit          3D

 16 16  0  0  0  0  0  0  0  0999 V2000
   39.1450   41.5490   23.9570 P   0  0  0  0  0  0  0  0  0  0  0  0
   38.7870   39.5570   28.0250 C   0  0  0  0  0  0  0  0  0  0  0  0
   39.9000   39.9300   30.0580 O   0  0  0  0  0  0  0  0  0  0  0  0
   40.3950   40.5890   26.7610 O   0  0  0  0  0  0  0  0  0  0  0  0
   38.3390   41.0330   22.8220 O   0  0  0  0  0  0  0  0  0  0  0  0
   39.8610   42.6410   23.3230 O   0  0  0  0  0  0  0  0  0  0  0  0
   42.6930   40.5360   29.8440 N   0  0  0  0  0  0  0  0  0  0  0  0
   39.4240   40.0610   24.5410 O   0  0  0  0  0  0  0  0  0  0  0  0
   39.0320   40.3790   26.8950 C   0  0  0  0  0  0  0  0  0  0  0  0
   38.6950   39.5100   25.6010 C   0  0  0  0  0  0  0  0  0  0  0  0
   41.1140   40.2850   27.9190 C   0  0  0  0  0  0  0  0  0  0  0  0
   41.8030   41.2180   28.9340 C   0  0  0  0  0  0  0  0  0  0  0  0
   37.6260   39.1380   25.7850 O   0  0  0  0  0  0  0  0  0  0  0  0
   42.4620   42.0350   28.0870 O   0  0  0  0  0  0  0  0  0  0  0  0
   40.1330   39.4120   28.6610 C   0  0  0  0  0  0  0  0  0  0  0  0
   38.4700   42.3340   25.0500 O   0  0  0  0  0  0  0  0  0  0  0  0
  1  8  1  0
  1 16  1  0
  2 15  1  0
  4  9  1  0
  4 11  1  0
  5  1  2  0
  6  1  1  0
  8 10  1  0
  9 10  1  0
  9  2  1  0
 10 13  2  0
 11 15  1  0
 11 12  1  0
 12 14  1  0
 12  7  1  0
 15  3  1  0
M  END
$$$$

     RDKit          3D

 12 11  0  0  0  0  0  0  0  0999 V2000
   41.7840   40.3350   28.0660 O   0  0  0  0  0  0  0  0  0  0  0  0
   37.5330   39.9840   26.1580 S   0  0  0  0  0  0  0  0  0  0  0  0
   39.4410   40.1440   27.2980 C   0  0  0  0  0  0  0  0  0  0  0  0
   36.6950   40.2950   26.9090 O   0  0  0  0  0  0  0  0  0  0  0  0
   40.2490   41.8750   29.1400 C   0  0  0  0  0  0  0  0  0  0  0  0
   39.8520   38.5540   28.8390 O   0  0  0  0  0  0  0  0  0  0  0  0
   37.8960   38.2850   27.9780 O   0  0  0  0  0  0  0  0  0  0  0  0
   37.4500   38.7040   24.7490 S   0  0  0  0  0  0  0  0  0  0  0  0
   39.0200   40.8380   26.0960 C   0  0  0  0  0  0  0  0  0  0  0  0
   40.6190   40.8840   28.0450 C   0  0  0  0  0  0  0  0  0  0  0  0
   39.5920   42.2600   26.0120 C   0  0  0  0  0  0  0  0  0  0  0  0
   38.9940   38.8950   28.0550 C   0  0  0  0  0  0  0  0  0  0  0  0
  2  8  1  0
  2  4  2  0
  3 10  1  0
  3 12  1  0
  7 12  2  0
  9 11  1  0
  9  2  1  0
  9  3  1  0
 10  1  1  0
 10  5  1  0
 12  6  1  0
M  END
$$$$

     RDKit          3D

 20 21  0  0  0  0  0  0  0  0999 V2000
   36.0180   38.1410   23.4070 C   0  0  0  0  0  0  0  0  0  0  0  0
   35.7070   40.7420   23.5530 C   0  0  0  0  0  0  0  0  0  0  0  0
   32.3090   42.9150   25.2060 C   0  0  0  0  0  0  0  0  0  0  0  0
   33.7220   43.3090   25.5820 C   0  0  0  0  0  0  0  0  0  0  0  0
   39.4830   40.4890   27.6220 C   0  0  0  0  0  0  0  0  0  0  0  0
   36.3200   40.1800   24.7910 C   0  0  0  0  0  0  0  0  0  0  0  0
   36.3180   38.7250   24.8180 C   0  0  0  0  0  0  0  0  0  0  0  0
   39.6070   39.1880   27.8840 C   0  0  0  0  0  0  0  0  0  0  0  0
   34.5980   41.1070   25.9980 O   0  0  0  0  0  0  0  0  0  0  0  0
   41.9260   40.2150   30.3210 C   0  0  0  0  0  0  0  0  0  0  0  0
   40.6690   38.8000   28.8350 C   0  0  0  0  0  0  0  0  0  0  0  0
   38.8950   38.3880   27.1440 N   0  0  0  0  0  0  0  0  0  0  0  0
   38.5230   40.9760   26.7020 C   0  0  0  0  0  0  0  0  0  0  0  0
   37.9900   38.7830   26.2590 C   0  0  0  0  0  0  0  0  0  0  0  0
   35.0290   42.0420   23.9420 C   0  0  0  0  0  0  0  0  0  0  0  0
   37.6890   40.0630   26.3110 N   0  0  0  0  0  0  0  0  0  0  0  0
   37.4310   37.8780   25.2760 C   0  0  0  0  0  0  0  0  0  0  0  0
   40.6150   40.0550   29.6560 N   0  0  0  0  0  0  0  0  0  0  0  0
   34.6360   42.1360   25.3000 C   0  0  0  0  0  0  0  0  0  0  0  0
   40.3870   41.2860   28.7070 C   0  0  0  0  0  0  0  0  0  0  0  0
  2 15  1  0
  2  6  1  0
  3  4  1  0
  5  8  2  0
  5 20  1  0
  6  7  1  0
  7  1  1  0
  7 17  1  0
  8 11  1  0
 11 18  1  0
 12  8  1  0
 13  5  1  0
 14 16  1  0
 14 12  2  0
 15 19  1  0
 16 13  1  0
 17 14  1  0
 18 10  1  0
 19  4  1  0
 19  9  2  0
 20 18  1  0
M  END
$$$$

     RDKit          3D

 15 15  0  0  0  0  0  0  0  0999 V2000
   34.4340   41.0510   23.6490 O   0  0  0  0  0  0  0  0  0  0  0  0
   36.3710   39.6530   25.1070 C   0  0  0  0  0  0  0  0  0  0  0  0
   40.9510   40.7520   28.7020 C   0  0  0  0  0  0  0  0  0  0  0  0
   39.0940   41.2080   26.9020 C   0  0  0  0  0  0  0  0  0  0  0  0
   38.5660   39.1050   27.5640 C   0  0  0  0  0  0  0  0  0  0  0  0
   37.5460   38.1820   23.2240 O   0  0  0  0  0  0  0  0  0  0  0  0
   36.7040   40.4290   23.7710 C   0  0  0  0  0  0  0  0  0  0  0  0
   37.6870   39.5150   23.1170 C   0  0  0  0  0  0  0  0  0  0  0  0
   40.2690   41.5670   27.8270 C   0  0  0  0  0  0  0  0  0  0  0  0
   40.5310   39.4770   28.9530 C   0  0  0  0  0  0  0  0  0  0  0  0
   39.4850   38.9950   28.3580 C   0  0  0  0  0  0  0  0  0  0  0  0
   37.6790   39.1940   26.1200 S   0  0  0  0  0  0  0  0  0  0  0  0
   35.2520   40.2440   23.1340 C   0  0  0  0  0  0  0  0  0  0  0  0
   38.0450   40.8940   26.2990 C   0  0  0  0  0  0  0  0  0  0  0  0
   35.1060   39.4920   22.1550 O   0  0  0  0  0  0  0  0  0  0  0  0
  3 10  1  0
  4  9  2  0
  5 11  1  0
  7  8  1  0
  7  2  1  0
  8  6  1  0
  9  3  1  0
 11 10  2  0
 12  2  1  0
 12 14  1  0
 12  5  1  0
 13  1  1  0
 13  7  1  0
 14  4  2  0
 15 13  2  0
M  END
$$$$

     RDKit          3D

 17 16  0  0  0  0  0  0  0  0999 V2000
   39.6120   38.0220   28.9960 O   0  0  0  0  0  0  0  0  0  0  0  0
   41.4340   39.0770   27.6970 O   0  0  0  0  0  0  0  0  0  0  0  0
   40.0270   39.4040   27.9360 P   0  0  0  0  0  0  0  0  0  0  0  0
   35.0900   40.6290   26.2510 C   0  0  0  0  0  0  0  0  0  0  0  0
   33.7690   40.8480   25.6000 C   0  0  0  0  0  0  0  0  0  0  0  0
   37.3910   40.1200   25.9210 C   0  0  0  0  0  0  0  0  0  0  0  0
   36.2700   40.9610   25.6730 C   0  0  0  0  0  0  0  0  0  0  0  0
   38.9420   40.2540   22.8290 C   0  0  0  0  0  0  0  0  0  0  0  0
   39.8780   40.0660   26.1970 N   0  0  0  0  0  0  0  0  0  0  0  0
   37.3060   39.0260   26.5080 O   0  0  0  0  0  0  0  0  0  0  0  0
   36.4850   42.0690   24.9430 O   0  0  0  0  0  0  0  0  0  0  0  0
   38.7290   40.5320   25.3430 C   0  0  0  0  0  0  0  0  0  0  0  0
   40.0130   40.7280   28.8580 O   0  0  0  0  0  0  0  0  0  0  0  0
   33.8400   40.3590   24.2710 O   0  0  0  0  0  0  0  0  0  0  0  0
   38.4820   39.6860   21.6770 O   0  0  0  0  0  0  0  0  0  0  0  0
   38.4410   39.6490   24.1670 C   0  0  0  0  0  0  0  0  0  0  0  0
   38.7390   41.8930   25.0370 O   0  0  0  0  0  0  0  0  0  0  0  0
  2  3  2  0
  3 13  1  0
  3  1  1  0
  5  4  1  0
  6 10  2  0
  7 11  1  0
  7  6  1  0
  7  4  1  0
  8 16  1  0
  9  3  1  0
 12 17  1  0
 12  6  1  0
 12  9  1  0
 14  5  1  0
 15  8  1  0
 16 12  1  0
M  END
$$$$
