
     RDKit          3D

 19 19  0  0  0  0  0  0  0  0999 V2000
   36.0930   41.1380   21.6440 C   0  0  0  0  0  0  0  0  0  0  0  0
   42.1780   39.6120   22.7350 N   0  0  0  0  0  0  0  0  0  0  0  0
   41.0790   40.1680   23.2390 C   0  0  0  0  0  0  0  0  0  0  0  0
   39.6260   42.3530   23.9160 S   0  0  0  0  0  0  0  0  0  0  0  0
   35.5150   39.0690   25.2370 O   0  0  0  0  0  0  0  0  0  0  0  0
   38.4520   41.1050   23.9400 C   0  0  0  0  0  0  0  0  0  0  0  0
   42.3730   42.7920   23.0200 Br  0  0  0  0  0  0  0  0  0  0  0  0
   40.9840   41.6200   23.5700 C   0  0  0  0  0  0  0  0  0  0  0  0
   43.6210   38.3970   21.1740 C   0  0  0  0  0  0  0  0  0  0  0  0
   37.1530   41.3960   23.9670 O   0  0  0  0  0  0  0  0  0  0  0  0
   41.6360   39.6050   20.3400 C   0  0  0  0  0  0  0  0  0  0  0  0
   40.0400   39.2880   23.4660 N   0  0  0  0  0  0  0  0  0  0  0  0
   36.8980   39.3720   25.4290 C   0  0  0  0  0  0  0  0  0  0  0  0
   38.8510   39.7480   23.9710 C   0  0  0  0  0  0  0  0  0  0  0  0
   36.9280   42.3750   21.3420 C   0  0  0  0  0  0  0  0  0  0  0  0
   36.2790   40.5860   23.0800 C   0  0  0  0  0  0  0  0  0  0  0  0
   42.7010   39.6080   21.4130 C   0  0  0  0  0  0  0  0  0  0  0  0
   38.2740   37.6470   24.7360 N   0  0  0  0  0  0  0  0  0  0  0  0
   37.7920   38.9230   24.2790 C   0  0  0  0  0  0  0  0  0  0  0  0
  1 16  1  0
  2  3  1  0
  3 12  2  0
  3  8  1  0
  4  6  1  0
  5 13  1  0
  6 10  1  0
  6 14  1  0
  8  7  1  0
  8  4  1  0
  9 17  1  0
 11 17  1  0
 12 14  1  0
 14 19  1  0
 15  1  1  0
 16 10  1  0
 17  2  1  0
 19 18  1  0
 19 13  1  0
M  END
$$$$

     RDKit          3D

 21 21  0  0  0  0  0  0  0  0999 V2000
   33.2820   39.3780   23.4270 C   0  0  0  0  0  0  0  0  0  0  0  0
   32.4390   37.6720   20.5930 N   0  0  0  0  0  0  0  0  0  0  0  0
   31.0940   39.2770   21.9880 N   0  0  0  0  0  0  0  0  0  0  0  0
   35.1800   37.7640   23.3780 C   0  0  0  0  0  0  0  0  0  0  0  0
   38.6900   38.7860   24.3430 C   0  0  0  0  0  0  0  0  0  0  0  0
   39.6340   42.8580   25.6040 C   0  0  0  0  0  0  0  0  0  0  0  0
   37.4620   38.4930   23.4950 N   0  0  0  0  0  0  0  0  0  0  0  0
   38.9460   40.0250   24.8030 C   0  0  0  0  0  0  0  0  0  0  0  0
   31.7280   39.7450   23.2300 C   0  0  0  0  0  0  0  0  0  0  0  0
   36.0770   38.8600   23.6180 C   0  0  0  0  0  0  0  0  0  0  0  0
   39.6270   41.0530   23.9330 N   0  0  0  0  0  0  0  0  0  0  0  0
   36.2650   40.9210   24.5910 O   0  0  0  0  0  0  0  0  0  0  0  0
   41.6620   43.9800   23.6760 O   0  0  0  0  0  0  0  0  0  0  0  0
   34.2070   40.3850   23.7310 C   0  0  0  0  0  0  0  0  0  0  0  0
   41.4350   42.4290   22.3670 O   0  0  0  0  0  0  0  0  0  0  0  0
   29.5960   39.3800   21.9150 C   0  0  0  0  0  0  0  0  0  0  0  0
   40.4350   42.0840   24.5690 C   0  0  0  0  0  0  0  0  0  0  0  0
   33.7300   38.0090   23.2600 C   0  0  0  0  0  0  0  0  0  0  0  0
   31.8230   39.0150   20.7280 C   0  0  0  0  0  0  0  0  0  0  0  0
   41.1630   42.9100   23.5410 C   0  0  0  0  0  0  0  0  0  0  0  0
   35.5330   40.0790   23.9560 C   0  0  0  0  0  0  0  0  0  0  0  0
  1 14  1  0
  2 19  1  0
  3  9  1  0
  4 10  2  0
  5  8  1  0
  7 10  1  0
  7  5  1  0
  9  1  1  0
 10 21  1  0
 11 17  1  0
 11  8  1  0
 14 21  2  0
 15 20  2  0
 16  3  1  0
 17  6  1  0
 18  4  1  0
 18  1  2  0
 19  3  1  0
 20 13  1  0
 20 17  1  0
 21 12  1  0
M  END
$$$$

     RDKit          3D

 13 14  0  0  0  0  0  0  0  0999 V2000
   37.8360   40.7170   23.4520 C   0  0  0  0  0  0  0  0  0  0  0  0
   38.2100   40.1490   21.1060 C   0  0  0  0  0  0  0  0  0  0  0  0
   36.2100   40.7320   22.0280 N   0  0  0  0  0  0  0  0  0  0  0  0
   34.1460   38.7390   21.4690 C   0  0  0  0  0  0  0  0  0  0  0  0
   36.2320   40.8230   23.4560 C   0  0  0  0  0  0  0  0  0  0  0  0
   38.5560   41.1200   22.2060 C   0  0  0  0  0  0  0  0  0  0  0  0
   36.2690   38.4360   22.7520 C   0  0  0  0  0  0  0  0  0  0  0  0
   36.7890   39.4560   21.6220 C   0  0  0  0  0  0  0  0  0  0  0  0
   34.8780   38.0680   22.7320 C   0  0  0  0  0  0  0  0  0  0  0  0
   38.3130   42.2730   21.8830 C   0  0  0  0  0  0  0  0  0  0  0  0
   38.2450   40.8100   19.8120 O   0  0  0  0  0  0  0  0  0  0  0  0
   39.7780   40.3970   21.6910 O   0  0  0  0  0  0  0  0  0  0  0  0
   36.0150   42.0030   23.8110 O   0  0  0  0  0  0  0  0  0  0  0  0
  1  5  1  0
  2 11  1  0
  2  8  1  0
  2 12  1  0
  2  6  1  0
  3  5  1  0
  4  9  1  0
  5 13  1  0
  6 10  1  0
  6  1  1  0
  8  3  1  0
  8  7  1  0
  9  7  1  0
 12  6  1  0
M  END
$$$$

     RDKit          3D

  8  7  0  0  0  0  0  0  0  0999 V2000
   37.4320   40.8650   22.9620 C   0  0  0  0  0  0  0  0  0  0  0  0
   36.7130   39.0640   21.4030 C   0  0  0  0  0  0  0  0  0  0  0  0
   36.3720   43.0050   23.2500 O   0  0  0  0  0  0  0  0  0  0  0  0
   37.3580   42.3710   22.7530 C   0  0  0  0  0  0  0  0  0  0  0  0
   38.2810   42.9430   22.1420 O   0  0  0  0  0  0  0  0  0  0  0  0
   36.6160   38.1540   22.1670 O   0  0  0  0  0  0  0  0  0  0  0  0
   36.0850   39.2600   20.3590 O   0  0  0  0  0  0  0  0  0  0  0  0
   37.8110   40.1110   21.6630 C   0  0  0  0  0  0  0  0  0  0  0  0
  2  8  1  0
  2  6  1  0
  4  1  1  0
  4  3  1  0
  5  4  2  0
  7  2  2  0
  8  1  1  0
M  END
$$$$

     RDKit          3D

 11 10  0  0  0  0  0  0  0  0999 V2000
   37.7100   38.8520   19.4450 N   0  0  0  0  0  0  0  0  0  0  0  0
   36.2110   42.8130   23.3920 C   0  0  0  0  0  0  0  0  0  0  0  0
   36.3230   40.8250   19.6340 C   0  0  0  0  0  0  0  0  0  0  0  0
   37.5330   40.7300   24.2870 C   0  0  0  0  0  0  0  0  0  0  0  0
   36.3840   40.6670   25.0900 O   0  0  0  0  0  0  0  0  0  0  0  0
   36.7840   39.5090   22.0230 O   0  0  0  0  0  0  0  0  0  0  0  0
   36.4540   39.3130   19.7370 C   0  0  0  0  0  0  0  0  0  0  0  0
   37.0930   43.7420   24.0550 O   0  0  0  0  0  0  0  0  0  0  0  0
   37.1840   41.6370   23.1190 C   0  0  0  0  0  0  0  0  0  0  0  0
   36.9290   41.5710   20.7520 N   0  0  0  0  0  0  0  0  0  0  0  0
   36.6550   40.7410   21.9950 C   0  0  0  0  0  0  0  0  0  0  0  0
  1  7  1  0
  2  8  1  0
  3  7  1  0
  3 10  1  0
  4  5  1  0
  9  2  1  0
  9  4  1  0
 10 11  1  0
 11  6  2  0
 11  9  1  0
M  END
$$$$

     RDKit          3D

 10 10  0  0  0  0  0  0  0  0999 V2000
   36.1900   40.9430   23.4550 C   0  0  0  0  0  0  0  0  0  0  0  0
   38.0530   39.4540   24.0280 C   0  0  0  0  0  0  0  0  0  0  0  0
   36.7280   39.8750   24.1990 C   0  0  0  0  0  0  0  0  0  0  0  0
   38.3570   41.2170   22.3790 C   0  0  0  0  0  0  0  0  0  0  0  0
   37.0070   43.8110   21.6920 O   0  0  0  0  0  0  0  0  0  0  0  0
   37.0360   41.6220   22.5440 C   0  0  0  0  0  0  0  0  0  0  0  0
   35.3720   42.0940   21.0280 O   0  0  0  0  0  0  0  0  0  0  0  0
   38.8580   40.1560   23.1570 C   0  0  0  0  0  0  0  0  0  0  0  0
   36.6070   42.6450   21.7970 N   0  0  0  0  0  0  0  0  0  0  0  0
   38.6600   38.4610   24.6770 N   0  0  0  0  0  0  0  0  0  0  0  0
  1  3  1  0
  2  3  2  0
  2 10  1  0
  4  6  1  0
  4  8  2  0
  5  9  2  0
  6  1  2  0
  7  9  2  0
  8  2  1  0
  9  6  1  0
M  END
$$$$

     RDKit          3D

 11 11  0  0  0  0  0  0  0  0999 V2000
   38.3230   40.4500   23.0450 N   0  0  0  0  0  0  0  0  0  0  0  0
   36.8270   39.4370   21.6400 C   0  0  0  0  0  0  0  0  0  0  0  0
   34.4570   41.5030   20.8190 O   0  0  0  0  0  0  0  0  0  0  0  0
   37.3520   43.1100   21.3680 C   0  0  0  0  0  0  0  0  0  0  0  0
   37.4370   41.9930   22.5100 C   0  0  0  0  0  0  0  0  0  0  0  0
   36.9300   42.6050   20.1320 O   0  0  0  0  0  0  0  0  0  0  0  0
   35.6640   38.8730   21.5690 C   0  0  0  0  0  0  0  0  0  0  0  0
   34.5340   39.0600   20.7020 O   0  0  0  0  0  0  0  0  0  0  0  0
   37.6830   40.6810   21.8250 C   0  0  0  0  0  0  0  0  0  0  0  0
   38.3750   40.8720   20.6510 F   0  0  0  0  0  0  0  0  0  0  0  0
   34.6850   40.4240   20.4760 C   0  0  0  0  0  0  0  0  0  0  0  0
  2  9  1  0
  5  4  1  0
  5  1  1  0
  6  4  1  0
  7  2  1  0
  8  7  1  0
  9 10  1  0
  9  5  1  0
  9  1  1  0
 11  8  1  0
 11  3  2  0
M  END
$$$$

     RDKit          3D

 12 11  0  0  0  0  0  0  0  0999 V2000
   32.8410   39.6580   21.8380 O   0  0  0  0  0  0  0  0  0  0  0  0
   34.8660   37.5370   18.9580 O   0  0  0  0  0  0  0  0  0  0  0  0
   33.5250   40.5420   22.7140 O   0  0  0  0  0  0  0  0  0  0  0  0
   35.2580   37.6320   21.3520 O   0  0  0  0  0  0  0  0  0  0  0  0
   32.9730   36.8120   20.2730 O   0  0  0  0  0  0  0  0  0  0  0  0
   35.9230   37.2890   25.2720 O   0  0  0  0  0  0  0  0  0  0  0  0
   35.2140   39.0170   23.4810 C   0  0  0  0  0  0  0  0  0  0  0  0
   33.4880   39.4520   20.5590 C   0  0  0  0  0  0  0  0  0  0  0  0
   34.5320   37.9300   22.6370 C   0  0  0  0  0  0  0  0  0  0  0  0
   36.2150   38.2410   24.2750 C   0  0  0  0  0  0  0  0  0  0  0  0
   36.2840   39.6180   23.0770 O   0  0  0  0  0  0  0  0  0  0  0  0
   34.2670   37.8700   20.0370 S   0  0  0  0  0  0  0  0  0  0  0  0
  1  3  1  0
  2 12  1  0
  4  9  1  0
  7 11  1  0
  7 10  1  0
  8  1  1  0
  9  7  1  0
 10  6  1  0
 12  5  1  0
 12  8  1  0
 12  4  1  0
M  END
$$$$

     RDKit          3D

  8  8  0  0  0  0  0  0  0  0999 V2000
   36.9840   42.6520   22.6810 C   0  0  0  0  0  0  0  0  0  0  0  0
   38.4410   42.4370   22.5790 C   0  0  0  0  0  0  0  0  0  0  0  0
   36.1880   40.2830   23.0880 C   0  0  0  0  0  0  0  0  0  0  0  0
   39.8420   39.2760   23.4650 N   0  0  0  0  0  0  0  0  0  0  0  0
   38.7550   39.8710   22.8260 C   0  0  0  0  0  0  0  0  0  0  0  0
   37.4880   39.6160   23.3910 C   0  0  0  0  0  0  0  0  0  0  0  0
   36.1010   41.6000   22.6180 N   0  0  0  0  0  0  0  0  0  0  0  0
   39.1730   41.2770   22.8460 C   0  0  0  0  0  0  0  0  0  0  0  0
  2  1  1  0
  2  8  1  0
  3  6  1  0
  5  8  1  0
  5  6  1  0
  5  4  1  0
  7  1  1  0
  7  3  1  0
M  END
$$$$

     RDKit          3D

 20 22  0  0  0  0  0  0  0  0999 V2000
   33.0540   41.0430   19.9370 S   0  0  0  0  0  0  0  0  0  0  0  0
   34.1080   40.0810   23.9620 C   0  0  0  0  0  0  0  0  0  0  0  0
   38.6560   37.9990   25.1850 C   0  0  0  0  0  0  0  0  0  0  0  0
   37.5040   37.9490   25.9290 C   0  0  0  0  0  0  0  0  0  0  0  0
   35.0140   39.9380   21.4800 C   0  0  0  0  0  0  0  0  0  0  0  0
   31.8740   39.6060   18.4390 O   0  0  0  0  0  0  0  0  0  0  0  0
   36.4110   38.6720   25.4970 C   0  0  0  0  0  0  0  0  0  0  0  0
   38.8810   38.9330   24.1730 C   0  0  0  0  0  0  0  0  0  0  0  0
   35.0210   37.9180   20.0230 C   0  0  0  0  0  0  0  0  0  0  0  0
   36.5740   39.4600   24.3590 C   0  0  0  0  0  0  0  0  0  0  0  0
   33.6600   41.1050   22.8580 N   0  0  0  0  0  0  0  0  0  0  0  0
   33.5780   40.5610   21.5040 C   0  0  0  0  0  0  0  0  0  0  0  0
   37.8390   39.6360   23.8150 N   0  0  0  0  0  0  0  0  0  0  0  0
   35.3440   38.6380   21.2580 O   0  0  0  0  0  0  0  0  0  0  0  0
   32.5910   38.9290   19.3200 C   0  0  0  0  0  0  0  0  0  0  0  0
   33.7260   38.2410   19.3250 C   0  0  0  0  0  0  0  0  0  0  0  0
   37.2070   37.7570   18.8950 O   0  0  0  0  0  0  0  0  0  0  0  0
   35.8310   40.7090   22.4230 O   0  0  0  0  0  0  0  0  0  0  0  0
   35.9880   38.5850   19.0790 C   0  0  0  0  0  0  0  0  0  0  0  0
   35.6180   40.0900   23.6820 C   0  0  0  0  0  0  0  0  0  0  0  0
  3  4  1  0
  5 14  1  0
  5 12  1  0
  5 18  1  0
  7  4  2  0
  8  3  2  0
  9 19  1  0
  9 14  1  0
 10  7  1  0
 11  2  1  0
 12  1  1  0
 12 11  1  0
 13  8  1  0
 13 10  2  0
 15  6  1  0
 15 16  1  0
 15  1  1  0
 16  9  1  0
 17 19  1  0
 18 20  1  0
 20  2  1  0
 20 10  1  0
M  END
$$$$

     RDKit          3D

  9  9  0  0  0  0  0  0  0  0999 V2000
   36.7000   41.7570   23.9320 C   0  0  0  0  0  0  0  0  0  0  0  0
   39.0140   40.0090   21.4830 N   0  0  0  0  0  0  0  0  0  0  0  0
   36.6020   39.6710   21.6960 C   0  0  0  0  0  0  0  0  0  0  0  0
   37.9210   39.8970   22.4440 C   0  0  0  0  0  0  0  0  0  0  0  0
   36.9470   42.9450   24.5630 O   0  0  0  0  0  0  0  0  0  0  0  0
   35.2190   40.3640   22.2680 S   0  0  0  0  0  0  0  0  0  0  0  0
   37.9970   41.0840   23.4230 C   0  0  0  0  0  0  0  0  0  0  0  0
   35.9030   42.0570   22.7290 C   0  0  0  0  0  0  0  0  0  0  0  0
   39.1280   41.4470   23.8860 O   0  0  0  0  0  0  0  0  0  0  0  0
  1  5  1  0
  3  6  1  0
  3  4  1  0
  4  2  1  0
  4  7  1  0
  6  8  1  0
  7  9  2  0
  7  1  1  0
  8  1  1  0
M  END
$$$$

     RDKit          3D

 14 14  0  0  0  0  0  0  0  0999 V2000
   35.9470   40.6520   23.7750 C   0  0  0  0  0  0  0  0  0  0  0  0
   33.7310   36.8350   22.5310 O   0  0  0  0  0  0  0  0  0  0  0  0
   33.1780   40.0830   22.3130 N   0  0  0  0  0  0  0  0  0  0  0  0
   36.6120   38.6310   25.0030 O   0  0  0  0  0  0  0  0  0  0  0  0
   32.0750   39.2490   24.1430 N   0  0  0  0  0  0  0  0  0  0  0  0
   35.8540   39.1240   23.9310 C   0  0  0  0  0  0  0  0  0  0  0  0
   32.1000   41.0890   22.1430 C   0  0  0  0  0  0  0  0  0  0  0  0
   38.1320   41.2950   23.0960 O   0  0  0  0  0  0  0  0  0  0  0  0
   37.2610   41.5510   24.1100 C   0  0  0  0  0  0  0  0  0  0  0  0
   34.4170   38.5930   23.8150 C   0  0  0  0  0  0  0  0  0  0  0  0
   36.0340   39.1360   21.5460 O   0  0  0  0  0  0  0  0  0  0  0  0
   33.3210   39.7070   23.6990 C   0  0  0  0  0  0  0  0  0  0  0  0
   33.9520   37.2500   23.8370 C   0  0  0  0  0  0  0  0  0  0  0  0
   36.1640   39.9540   22.6760 C   0  0  0  0  0  0  0  0  0  0  0  0
  1  6  1  0
  1  9  1  0
  2 13  1  0
  3 12  1  0
  6  4  1  0
  7  3  1  0
  8  9  1  0
 10 13  1  0
 10  6  1  0
 12 10  1  0
 12  5  1  0
 14 11  1  0
 14  1  1  0
 14  6  1  0
M  END
$$$$

     RDKit          3D

 16 16  0  0  0  0  0  0  0  0999 V2000
   34.4080   38.1990   20.1340 S   0  0  0  0  0  0  0  0  0  0  0  0
   37.7140   41.6410   23.6200 C   0  0  0  0  0  0  0  0  0  0  0  0
   39.7350   42.9940   23.5800 C   0  0  0  0  0  0  0  0  0  0  0  0
   33.6470   38.5710   18.9970 O   0  0  0  0  0  0  0  0  0  0  0  0
   39.8110   43.3210   25.0140 N   0  0  0  0  0  0  0  0  0  0  0  0
   37.0410   42.3320   25.6050 O   0  0  0  0  0  0  0  0  0  0  0  0
   34.8810   40.2480   21.3870 C   0  0  0  0  0  0  0  0  0  0  0  0
   35.4760   42.5820   22.2900 O   0  0  0  0  0  0  0  0  0  0  0  0
   38.2550   42.7940   23.3380 N   0  0  0  0  0  0  0  0  0  0  0  0
   35.6550   39.1740   20.6170 C   0  0  0  0  0  0  0  0  0  0  0  0
   36.5480   38.6340   21.6930 C   0  0  0  0  0  0  0  0  0  0  0  0
   37.7030   41.2710   25.0760 C   0  0  0  0  0  0  0  0  0  0  0  0
   35.7240   41.2710   22.1300 C   0  0  0  0  0  0  0  0  0  0  0  0
   34.8100   36.8650   20.0100 O   0  0  0  0  0  0  0  0  0  0  0  0
   37.4300   39.4590   22.4790 C   0  0  0  0  0  0  0  0  0  0  0  0
   36.9900   40.7260   22.7140 C   0  0  0  0  0  0  0  0  0  0  0  0
  2 12  1  0
  3  5  1  0
  4  1  1  0
  7 13  1  0
  9  3  1  0
  9  2  1  0
 10  1  1  0
 10  7  1  0
 10 11  1  0
 11 15  1  0
 12  6  1  0
 13  8  1  0
 13 16  2  0
 14  1  1  0
 15 16  1  0
 16  2  1  0
M  END
$$$$

     RDKit          3D

 14 14  0  0  0  0  0  0  0  0999 V2000
   37.8280   39.7860   21.1600 C   0  0  0  0  0  0  0  0  0  0  0  0
   37.1740   38.0930   23.3650 O   0  0  0  0  0  0  0  0  0  0  0  0
   39.4320   41.2890   22.6430 C   0  0  0  0  0  0  0  0  0  0  0  0
   35.3250   40.1280   24.9600 C   0  0  0  0  0  0  0  0  0  0  0  0
   35.8230   41.8720   22.8150 O   0  0  0  0  0  0  0  0  0  0  0  0
   38.0680   40.5080   22.5580 C   0  0  0  0  0  0  0  0  0  0  0  0
   34.5070   37.9140   20.0590 S   0  0  0  0  0  0  0  0  0  0  0  0
   36.4980   39.0080   21.1780 C   0  0  0  0  0  0  0  0  0  0  0  0
   36.8990   41.0930   23.3470 C   0  0  0  0  0  0  0  0  0  0  0  0
   36.0710   39.9510   23.7010 C   0  0  0  0  0  0  0  0  0  0  0  0
   39.2860   42.6770   22.5990 N   0  0  0  0  0  0  0  0  0  0  0  0
   34.0010   38.2870   18.6690 O   0  0  0  0  0  0  0  0  0  0  0  0
   36.0690   38.7660   22.7540 C   0  0  0  0  0  0  0  0  0  0  0  0
   35.3680   39.4960   20.4950 N   0  0  0  0  0  0  0  0  0  0  0  0
  1  8  1  0
  1  6  1  0
  6  3  1  0
  6  9  1  0
  7 14  1  0
  8 14  1  0
  8 13  1  0
  9  5  1  0
  9 10  1  0
 10  4  1  0
 11  3  1  0
 12  7  2  0
 13  2  1  0
 13 10  1  0
M  END
$$$$

     RDKit          3D

 10  9  0  0  0  0  0  0  0  0999 V2000
   36.5940   42.3460   24.4270 O   0  0  0  0  0  0  0  0  0  0  0  0
   39.2970   39.2200   21.9550 O   0  0  0  0  0  0  0  0  0  0  0  0
   37.6990   39.2870   24.3930 O   0  0  0  0  0  0  0  0  0  0  0  0
   38.5990   40.4280   22.4450 C   0  0  0  0  0  0  0  0  0  0  0  0
   36.1290   42.0230   23.3910 C   0  0  0  0  0  0  0  0  0  0  0  0
   37.4120   40.8400   21.5160 C   0  0  0  0  0  0  0  0  0  0  0  0
   37.9750   40.4030   23.8540 C   0  0  0  0  0  0  0  0  0  0  0  0
   37.9910   43.0760   22.2940 O   0  0  0  0  0  0  0  0  0  0  0  0
   37.9250   41.0830   20.1910 O   0  0  0  0  0  0  0  0  0  0  0  0
   36.7690   42.1760   22.0500 C   0  0  0  0  0  0  0  0  0  0  0  0
  4  2  1  0
  4  7  1  0
  5  1  2  0
  6  9  1  0
  6 10  1  0
  6  4  1  0
  7  3  2  0
 10  8  1  0
 10  5  1  0
M  END
$$$$

     RDKit          3D

 20 23  0  0  0  0  0  0  0  0999 V2000
   36.8670   38.6510   25.2710 C   0  0  0  0  0  0  0  0  0  0  0  0
   38.0300   39.2300   23.0920 C   0  0  0  0  0  0  0  0  0  0  0  0
   34.1890   37.3570   21.4220 C   0  0  0  0  0  0  0  0  0  0  0  0
   40.2240   40.7460   20.0370 O   0  0  0  0  0  0  0  0  0  0  0  0
   39.0850   39.8680   20.1900 C   0  0  0  0  0  0  0  0  0  0  0  0
   32.8540   39.1860   23.1580 C   0  0  0  0  0  0  0  0  0  0  0  0
   32.7650   37.3430   21.5420 C   0  0  0  0  0  0  0  0  0  0  0  0
   37.9060   39.5330   24.6090 C   0  0  0  0  0  0  0  0  0  0  0  0
   35.0260   38.1070   22.4590 C   0  0  0  0  0  0  0  0  0  0  0  0
   35.6900   39.1810   24.7070 O   0  0  0  0  0  0  0  0  0  0  0  0
   37.9040   40.7820   22.4590 C   0  0  0  0  0  0  0  0  0  0  0  0
   31.8240   36.1500   20.6750 Cl  0  0  0  0  0  0  0  0  0  0  0  0
   35.4990   39.2640   23.2260 C   0  0  0  0  0  0  0  0  0  0  0  0
   36.6710   38.7600   22.4620 N   0  0  0  0  0  0  0  0  0  0  0  0
   36.4000   40.6350   18.8880 O   0  0  0  0  0  0  0  0  0  0  0  0
   38.6840   41.7220   22.9760 O   0  0  0  0  0  0  0  0  0  0  0  0
   36.5530   40.0980   20.2790 C   0  0  0  0  0  0  0  0  0  0  0  0
   37.9130   40.5740   20.9160 C   0  0  0  0  0  0  0  0  0  0  0  0
   32.0420   38.2460   22.3810 C   0  0  0  0  0  0  0  0  0  0  0  0
   34.1340   39.0920   23.0800 C   0  0  0  0  0  0  0  0  0  0  0  0
  2 11  1  0
  2  8  1  0
  3  7  1  0
  4  5  1  0
  5 18  1  0
  7 19  2  0
  8  1  1  0
  9  3  1  0
  9 14  1  0
  9 20  1  0
  9 13  1  0
 10  1  1  0
 11 16  1  0
 12  7  1  0
 13 20  1  0
 13 10  1  0
 14  2  1  0
 14 13  1  0
 15 17  1  0
 17 18  1  0
 18 11  1  0
 19  6  1  0
 20  6  2  0
M  END
$$$$

     RDKit          3D

  6  5  0  0  0  0  0  0  0  0999 V2000
   38.9720   39.2930   24.0070 O   0  0  0  0  0  0  0  0  0  0  0  0
   39.3220   41.0180   20.7710 O   0  0  0  0  0  0  0  0  0  0  0  0
   39.4760   40.2990   23.1310 C   0  0  0  0  0  0  0  0  0  0  0  0
   37.6830   39.5410   21.9820 O   0  0  0  0  0  0  0  0  0  0  0  0
   38.3160   40.7720   22.0650 P   0  0  0  0  0  0  0  0  0  0  0  0
   40.7560   39.7840   22.4450 C   0  0  0  0  0  0  0  0  0  0  0  0
  2  5  1  0
  3  6  1  0
  3  1  1  0
  4  5  1  0
  5  3  1  0
M  END
$$$$

     RDKit          3D

  9  9  0  0  0  0  0  0  0  0999 V2000
   36.5750   41.6350   22.0310 C   0  0  0  0  0  0  0  0  0  0  0  0
   36.0150   40.8110   20.9230 C   0  0  0  0  0  0  0  0  0  0  0  0
   38.1200   41.0700   22.2490 C   0  0  0  0  0  0  0  0  0  0  0  0
   38.5900   41.7280   23.3240 O   0  0  0  0  0  0  0  0  0  0  0  0
   36.5580   39.3640   21.2250 C   0  0  0  0  0  0  0  0  0  0  0  0
   34.5150   40.8390   20.7040 O   0  0  0  0  0  0  0  0  0  0  0  0
   37.7720   39.5760   22.1150 N   0  0  0  0  0  0  0  0  0  0  0  0
   36.0660   42.5940   22.6330 O   0  0  0  0  0  0  0  0  0  0  0  0
   36.9330   38.6900   20.0180 O   0  0  0  0  0  0  0  0  0  0  0  0
  1  3  1  0
  1  8  2  0
  2  6  1  0
  2  5  1  0
  2  1  1  0
  3  4  1  0
  5  9  1  0
  5  7  1  0
  7  3  1  0
M  END
$$$$

     RDKit          3D

  8  8  0  0  0  0  0  0  0  0999 V2000
   40.8220   40.3290   20.4390 O   0  0  0  0  0  0  0  0  0  0  0  0
   37.5320   41.6970   21.1790 S   0  0  0  0  0  0  0  0  0  0  0  0
   36.7740   40.3900   21.8300 C   0  0  0  0  0  0  0  0  0  0  0  0
   39.8400   42.5120   19.7240 O   0  0  0  0  0  0  0  0  0  0  0  0
   38.9270   39.7600   21.4930 N   0  0  0  0  0  0  0  0  0  0  0  0
   37.7430   39.3800   22.1260 C   0  0  0  0  0  0  0  0  0  0  0  0
   38.9770   40.9660   20.9590 C   0  0  0  0  0  0  0  0  0  0  0  0
   40.0080   41.6900   20.7480 N   0  0  0  0  0  0  0  0  0  0  0  0
  1  8  1  0
  2  3  1  0
  3  6  1  0
  4  8  1  0
  5  6  1  0
  7  8  1  0
  7  2  1  0
  7  5  1  0
M  END
$$$$

     RDKit          3D

 10  9  0  0  0  0  0  0  0  0999 V2000
   35.8540   42.3520   22.9200 O   0  0  0  0  0  0  0  0  0  0  0  0
   35.8900   38.0900   19.8640 S   0  0  0  0  0  0  0  0  0  0  0  0
   35.1610   40.4030   21.8230 N   0  0  0  0  0  0  0  0  0  0  0  0
   34.9290   41.2860   22.9430 C   0  0  0  0  0  0  0  0  0  0  0  0
   37.3820   40.2390   24.1920 O   0  0  0  0  0  0  0  0  0  0  0  0
   36.0520   39.2680   19.0900 O   0  0  0  0  0  0  0  0  0  0  0  0
   37.5470   39.6810   23.0860 C   0  0  0  0  0  0  0  0  0  0  0  0
   36.5310   39.7660   21.9400 C   0  0  0  0  0  0  0  0  0  0  0  0
   38.6460   38.9840   22.8050 N   0  0  0  0  0  0  0  0  0  0  0  0
   36.4670   38.2990   21.5170 C   0  0  0  0  0  0  0  0  0  0  0  0
  1  4  1  0
  2 10  1  0
  3  8  1  0
  3  4  1  0
  6  2  2  0
  7  5  2  0
  8 10  1  0
  8  7  1  0
  9  7  1  0
M  END
$$$$
