
     RDKit          3D

 20 21  0  0  0  0  0  0  0  0999 V2000
   41.9710   41.2220   26.3480 C   0  0  0  0  0  0  0  0  0  0  0  0
   36.4620   39.3410   24.8970 P   0  0  0  0  0  0  0  0  0  0  0  0
   37.7810   40.5620   27.0250 C   0  0  0  0  0  0  0  0  0  0  0  0
   37.0750   38.1450   25.1690 O   0  0  0  0  0  0  0  0  0  0  0  0
   39.2020   40.6200   27.4530 N   0  0  0  0  0  0  0  0  0  0  0  0
   41.8170   44.4450   27.6750 O   0  0  0  0  0  0  0  0  0  0  0  0
   37.5920   41.5430   25.8780 C   0  0  0  0  0  0  0  0  0  0  0  0
   33.1620   40.3690   23.2420 C   0  0  0  0  0  0  0  0  0  0  0  0
   35.3270   39.0950   23.6450 N   0  0  0  0  0  0  0  0  0  0  0  0
   35.4420   39.9740   25.6810 O   0  0  0  0  0  0  0  0  0  0  0  0
   38.8680   42.3580   25.9640 C   0  0  0  0  0  0  0  0  0  0  0  0
   35.6160   41.1290   22.9200 C   0  0  0  0  0  0  0  0  0  0  0  0
   35.5420   38.4020   22.6570 O   0  0  0  0  0  0  0  0  0  0  0  0
   41.1760   42.4090   26.8660 C   0  0  0  0  0  0  0  0  0  0  0  0
   39.7100   41.9940   27.1370 C   0  0  0  0  0  0  0  0  0  0  0  0
   41.9850   43.0710   27.9640 C   0  0  0  0  0  0  0  0  0  0  0  0
   34.5660   40.3830   23.6750 C   0  0  0  0  0  0  0  0  0  0  0  0
   34.6790   40.9910   25.0130 C   0  0  0  0  0  0  0  0  0  0  0  0
   39.2800   43.0750   25.0930 O   0  0  0  0  0  0  0  0  0  0  0  0
   37.4530   40.6960   24.5810 C   0  0  0  0  0  0  0  0  0  0  0  0
  2  4  2  0
  2 10  1  0
  3  5  1  0
  6 16  1  0
  7 20  1  0
  7 11  1  0
  7  3  1  0
  8 17  1  0
  9 17  1  0
  9  2  1  0
 11 15  1  0
 12 17  1  0
 13  9  1  0
 14  1  1  0
 14 16  1  0
 15 14  1  0
 15  5  1  0
 17 18  1  0
 18 10  1  0
 19 11  2  0
 20  2  1  0
M  END
$$$$

     RDKit          3D

 17 17  0  0  0  0  0  0  0  0999 V2000
   38.6210   38.0300   29.0280 C   0  0  0  0  0  0  0  0  0  0  0  0
   36.8750   41.3740   22.5700 C   0  0  0  0  0  0  0  0  0  0  0  0
   35.6370   43.7530   22.5900 C   0  0  0  0  0  0  0  0  0  0  0  0
   37.3230   40.3730   23.6150 N   0  0  0  0  0  0  0  0  0  0  0  0
   38.3660   41.1520   25.6950 C   0  0  0  0  0  0  0  0  0  0  0  0
   34.8040   42.0390   23.5910 O   0  0  0  0  0  0  0  0  0  0  0  0
   38.6110   40.8260   24.2140 C   0  0  0  0  0  0  0  0  0  0  0  0
   37.2680   38.4090   28.4730 C   0  0  0  0  0  0  0  0  0  0  0  0
   37.4150   39.7480   27.7950 N   0  0  0  0  0  0  0  0  0  0  0  0
   37.0320   43.0390   24.5880 C   0  0  0  0  0  0  0  0  0  0  0  0
   39.7300   41.6840   26.2460 C   0  0  0  0  0  0  0  0  0  0  0  0
   37.0770   38.9460   25.5310 N   0  0  0  0  0  0  0  0  0  0  0  0
   36.1330   38.1730   23.3830 C   0  0  0  0  0  0  0  0  0  0  0  0
   37.9770   39.7920   26.3950 C   0  0  0  0  0  0  0  0  0  0  0  0
   34.3450   41.0430   24.6010 C   0  0  0  0  0  0  0  0  0  0  0  0
   36.9050   39.2290   24.1190 C   0  0  0  0  0  0  0  0  0  0  0  0
   36.0590   42.4640   23.3270 C   0  0  0  0  0  0  0  0  0  0  0  0
  2 17  1  0
  2  4  1  0
  3 17  1  0
  4 16  1  0
  4  7  1  0
  5 11  1  0
  5 14  1  0
  6 15  1  0
  7  5  1  0
  8  1  1  0
  9  8  1  0
 12 14  1  0
 13 16  1  0
 14  9  1  0
 16 12  2  0
 17  6  1  0
 17 10  1  0
M  END
$$$$

     RDKit          3D

 11 11  0  0  0  0  0  0  0  0999 V2000
   34.2960   40.5960   24.2840 O   0  0  0  0  0  0  0  0  0  0  0  0
   36.4930   39.3730   24.4060 C   0  0  0  0  0  0  0  0  0  0  0  0
   35.6990   40.5920   24.5800 C   0  0  0  0  0  0  0  0  0  0  0  0
   37.0270   39.6940   26.7410 O   0  0  0  0  0  0  0  0  0  0  0  0
   38.3820   40.6960   25.3240 O   0  0  0  0  0  0  0  0  0  0  0  0
   36.4900   41.7080   23.9870 C   0  0  0  0  0  0  0  0  0  0  0  0
   38.8320   42.1310   23.5620 C   0  0  0  0  0  0  0  0  0  0  0  0
   37.5820   39.4820   25.4970 C   0  0  0  0  0  0  0  0  0  0  0  0
   35.8660   42.8770   23.7240 O   0  0  0  0  0  0  0  0  0  0  0  0
   35.8010   38.1100   24.3770 O   0  0  0  0  0  0  0  0  0  0  0  0
   37.9880   41.4610   24.1550 C   0  0  0  0  0  0  0  0  0  0  0  0
  2 10  1  0
  2  3  1  0
  2  8  1  0
  3  1  1  0
  5  8  1  0
  6  9  1  0
  6 11  1  0
  6  3  1  0
  7 11  2  0
  8  4  1  0
 11  5  1  0
M  END
$$$$

     RDKit          3D

 10  9  0  0  0  0  0  0  0  0999 V2000
   36.9290   39.1030   24.7180 C   0  0  0  0  0  0  0  0  0  0  0  0
   39.3140   42.1460   24.8570 C   0  0  0  0  0  0  0  0  0  0  0  0
   36.9570   38.7700   23.5500 O   0  0  0  0  0  0  0  0  0  0  0  0
   37.3600   40.4120   24.8660 N   0  0  0  0  0  0  0  0  0  0  0  0
   39.2470   42.6390   26.2070 C   0  0  0  0  0  0  0  0  0  0  0  0
   38.3730   41.9200   27.1850 C   0  0  0  0  0  0  0  0  0  0  0  0
   38.8670   40.4530   23.1770 N   0  0  0  0  0  0  0  0  0  0  0  0
   38.7210   40.7790   24.5690 C   0  0  0  0  0  0  0  0  0  0  0  0
   37.9540   40.7120   26.8620 O   0  0  0  0  0  0  0  0  0  0  0  0
   36.5950   38.4070   25.6860 O   0  0  0  0  0  0  0  0  0  0  0  0
  1  4  1  0
  1 10  1  0
  2  5  2  3
  3  1  2  0
  5  6  1  0
  8  7  1  0
  8  2  1  0
  8  4  1  0
  9  6  1  0
M  END
$$$$

     RDKit          3D

 11 11  0  0  0  0  0  0  0  0999 V2000
   39.1500   40.4220   25.6050 C   0  0  0  0  0  0  0  0  0  0  0  0
   37.7980   39.8890   25.9600 C   0  0  0  0  0  0  0  0  0  0  0  0
   35.8460   39.8920   24.2610 C   0  0  0  0  0  0  0  0  0  0  0  0
   36.6520   40.5040   25.1770 C   0  0  0  0  0  0  0  0  0  0  0  0
   34.4210   41.8160   24.1850 C   0  0  0  0  0  0  0  0  0  0  0  0
   39.3510   41.8410   26.0980 C   0  0  0  0  0  0  0  0  0  0  0  0
   35.4330   42.5300   24.8580 C   0  0  0  0  0  0  0  0  0  0  0  0
   36.2570   38.5920   23.6530 C   0  0  0  0  0  0  0  0  0  0  0  0
   36.6570   37.6950   24.6180 O   0  0  0  0  0  0  0  0  0  0  0  0
   36.4410   41.8400   25.4280 C   0  0  0  0  0  0  0  0  0  0  0  0
   34.6920   40.5160   23.8310 C   0  0  0  0  0  0  0  0  0  0  0  0
  1  2  1  0
  1  6  1  0
  3  4  1  0
  4 10  2  0
  4  2  1  0
  5  7  2  0
  7 10  1  0
  8  3  1  0
  8  9  1  0
 11  5  1  0
 11  3  2  0
M  END
$$$$

     RDKit          3D

 11 11  0  0  0  0  0  0  0  0999 V2000
   37.3720   41.2110   26.5090 N   0  0  0  0  0  0  0  0  0  0  0  0
   37.1870   40.0920   24.3080 C   0  0  0  0  0  0  0  0  0  0  0  0
   36.0020   37.9920   24.3040 O   0  0  0  0  0  0  0  0  0  0  0  0
   34.1700   40.3200   22.9280 N   0  0  0  0  0  0  0  0  0  0  0  0
   35.9420   39.2310   24.2080 C   0  0  0  0  0  0  0  0  0  0  0  0
   33.5230   41.5120   23.0320 C   0  0  0  0  0  0  0  0  0  0  0  0
   37.8750   38.9160   26.4120 N   0  0  0  0  0  0  0  0  0  0  0  0
   34.6470   41.3450   25.1140 S   0  0  0  0  0  0  0  0  0  0  0  0
   37.5340   40.1270   25.7790 C   0  0  0  0  0  0  0  0  0  0  0  0
   34.8810   40.1150   23.9960 C   0  0  0  0  0  0  0  0  0  0  0  0
   33.5880   42.2430   24.1370 C   0  0  0  0  0  0  0  0  0  0  0  0
  2  9  1  0
  4  6  1  0
  4 10  2  0
  5  3  2  0
  5  2  1  0
  6 11  2  0
  9  7  2  0
  9  1  1  0
 10  5  1  0
 10  8  1  0
 11  8  1  0
M  END
$$$$

     RDKit          3D

 21 24  0  0  0  0  0  0  0  0999 V2000
   35.7640   43.4810   22.4790 C   0  0  0  0  0  0  0  0  0  0  0  0
   38.3340   39.4660   26.5690 C   0  0  0  0  0  0  0  0  0  0  0  0
   37.8970   38.2150   29.7640 C   0  0  0  0  0  0  0  0  0  0  0  0
   37.0960   40.3930   23.4410 N   0  0  0  0  0  0  0  0  0  0  0  0
   34.2140   41.0430   24.4700 C   0  0  0  0  0  0  0  0  0  0  0  0
   36.0780   39.8440   25.9100 C   0  0  0  0  0  0  0  0  0  0  0  0
   34.6600   42.0650   20.6320 C   0  0  0  0  0  0  0  0  0  0  0  0
   35.5760   40.1060   22.9240 C   0  0  0  0  0  0  0  0  0  0  0  0
   37.4030   36.7670   29.7500 C   0  0  0  0  0  0  0  0  0  0  0  0
   37.9100   36.0150   30.4260 O   0  0  0  0  0  0  0  0  0  0  0  0
   38.9460   41.5500   25.4020 O   0  0  0  0  0  0  0  0  0  0  0  0
   36.8890   40.5670   24.8990 C   0  0  0  0  0  0  0  0  0  0  0  0
   34.6340   41.2940   22.9610 C   0  0  0  0  0  0  0  0  0  0  0  0
   35.3310   38.8560   22.7870 N   0  0  0  0  0  0  0  0  0  0  0  0
   36.9880   39.8050   27.1820 C   0  0  0  0  0  0  0  0  0  0  0  0
   35.0530   42.5440   22.4270 C   0  0  0  0  0  0  0  0  0  0  0  0
   33.6360   42.9350   22.5970 C   0  0  0  0  0  0  0  0  0  0  0  0
   38.6980   36.7390   29.1160 C   0  0  0  0  0  0  0  0  0  0  0  0
   37.2240   38.7740   28.3670 C   0  0  0  0  0  0  0  0  0  0  0  0
   35.3670   41.1730   25.2800 C   0  0  0  0  0  0  0  0  0  0  0  0
   38.3750   40.2630   25.2610 C   0  0  0  0  0  0  0  0  0  0  0  0
  2 15  1  0
  4 12  1  0
  5 20  1  0
  6 15  1  0
  7 16  1  0
  8 13  1  0
  8  4  1  0
  9  3  1  0
  9 10  1  0
 12 21  1  0
 12 20  1  0
 12  6  1  0
 13  5  1  0
 14  8  2  0
 15 19  1  0
 16  1  1  0
 16 17  1  0
 16 13  1  0
 17 13  1  0
 18  9  1  0
 19  3  1  0
 20  6  1  0
 21 11  1  0
 21  2  1  0
M  END
$$$$

     RDKit          3D

 15 14  0  0  0  0  0  0  0  0999 V2000
   40.3330   41.8560   27.4060 C   0  0  0  0  0  0  0  0  0  0  0  0
   35.2450   39.9010   24.8470 C   0  0  0  0  0  0  0  0  0  0  0  0
   39.2860   41.2440   28.1140 O   0  0  0  0  0  0  0  0  0  0  0  0
   38.7670   40.9520   23.9540 O   0  0  0  0  0  0  0  0  0  0  0  0
   37.2680   41.4480   25.7300 O   0  0  0  0  0  0  0  0  0  0  0  0
   33.0460   40.5650   23.9800 O   0  0  0  0  0  0  0  0  0  0  0  0
   41.6500   41.2010   27.7040 N   0  0  0  0  0  0  0  0  0  0  0  0
   38.6700   41.1540   25.3950 C   0  0  0  0  0  0  0  0  0  0  0  0
   40.1280   41.7840   25.8360 C   0  0  0  0  0  0  0  0  0  0  0  0
   37.8720   38.8170   23.8930 O   0  0  0  0  0  0  0  0  0  0  0  0
   37.3140   39.0970   24.9860 C   0  0  0  0  0  0  0  0  0  0  0  0
   41.1220   41.9470   24.9290 O   0  0  0  0  0  0  0  0  0  0  0  0
   36.5660   40.3690   25.0550 C   0  0  0  0  0  0  0  0  0  0  0  0
   34.3400   41.0730   24.4820 C   0  0  0  0  0  0  0  0  0  0  0  0
   37.0720   38.1170   25.8820 O   0  0  0  0  0  0  0  0  0  0  0  0
  1  7  1  0
  1  3  1  0
  4  8  2  0
  6 14  1  0
  8  5  1  0
  8  9  1  0
  9 12  1  0
  9  1  1  0
 10 11  2  0
 11 13  1  0
 11 15  1  0
 13  2  1  0
 13  5  1  0
 14  2  1  0
M  END
$$$$

     RDKit          3D

 21 21  0  0  0  0  0  0  0  0999 V2000
   31.3110   35.1760   27.0790 O   0  0  0  0  0  0  0  0  0  0  0  0
   32.8450   37.0640   26.3240 C   0  0  0  0  0  0  0  0  0  0  0  0
   32.7030   41.0500   23.7220 C   0  0  0  0  0  0  0  0  0  0  0  0
   37.9470   40.1350   28.0200 N   0  0  0  0  0  0  0  0  0  0  0  0
   36.4570   39.3100   25.2680 O   0  0  0  0  0  0  0  0  0  0  0  0
   33.2240   36.7420   27.8580 C   0  0  0  0  0  0  0  0  0  0  0  0
   33.7500   38.1610   26.0390 C   0  0  0  0  0  0  0  0  0  0  0  0
   36.7330   39.0790   26.3570 C   0  0  0  0  0  0  0  0  0  0  0  0
   35.7040   37.5820   23.7030 O   0  0  0  0  0  0  0  0  0  0  0  0
   38.4190   42.8580   29.3110 O   0  0  0  0  0  0  0  0  0  0  0  0
   34.3350   40.3000   25.3440 C   0  0  0  0  0  0  0  0  0  0  0  0
   36.1400   38.6160   27.3080 O   0  0  0  0  0  0  0  0  0  0  0  0
   39.2560   42.4900   28.3490 C   0  0  0  0  0  0  0  0  0  0  0  0
   35.0670   39.2290   24.8870 C   0  0  0  0  0  0  0  0  0  0  0  0
   39.9800   41.1540   28.6330 C   0  0  0  0  0  0  0  0  0  0  0  0
   34.5670   37.8150   24.4990 C   0  0  0  0  0  0  0  0  0  0  0  0
   32.3180   35.9400   27.0010 C   0  0  0  0  0  0  0  0  0  0  0  0
   32.9910   40.4520   25.1060 C   0  0  0  0  0  0  0  0  0  0  0  0
   39.1370   39.9480   28.7830 C   0  0  0  0  0  0  0  0  0  0  0  0
   39.0550   40.6820   26.0570 O   0  0  0  0  0  0  0  0  0  0  0  0
   37.7550   40.3010   26.6360 C   0  0  0  0  0  0  0  0  0  0  0  0
  2  7  1  0
  2 17  1  0
  2  6  1  0
  3 18  1  0
  4 19  1  0
  5  8  1  0
  8 21  1  0
  8 12  2  0
 13 15  1  0
 13 10  1  0
 14  5  1  0
 14 11  1  0
 15 19  1  0
 16  9  1  0
 16 14  1  0
 16  7  1  0
 17  1  2  0
 17  6  1  0
 18 11  1  0
 21 20  1  0
 21  4  1  0
M  END
$$$$

     RDKit          3D

 16 16  0  0  0  0  0  0  0  0999 V2000
   36.5380   38.3290   24.6820 N   0  0  0  0  0  0  0  0  0  0  0  0
   35.5780   40.2560   23.8340 C   0  0  0  0  0  0  0  0  0  0  0  0
   36.1580   42.9080   22.1480 O   0  0  0  0  0  0  0  0  0  0  0  0
   40.0210   42.0350   27.4820 O   0  0  0  0  0  0  0  0  0  0  0  0
   35.3710   42.4700   24.5440 O   0  0  0  0  0  0  0  0  0  0  0  0
   39.4790   41.5450   25.2840 N   0  0  0  0  0  0  0  0  0  0  0  0
   35.0680   41.6570   23.9820 C   0  0  0  0  0  0  0  0  0  0  0  0
   35.7760   39.3620   22.8260 C   0  0  0  0  0  0  0  0  0  0  0  0
   37.2230   39.9310   27.1160 C   0  0  0  0  0  0  0  0  0  0  0  0
   36.6750   40.5060   25.9430 N   0  0  0  0  0  0  0  0  0  0  0  0
   36.1910   38.1400   23.3710 C   0  0  0  0  0  0  0  0  0  0  0  0
   39.4350   41.3190   26.6800 C   0  0  0  0  0  0  0  0  0  0  0  0
   38.7090   40.1630   27.2080 C   0  0  0  0  0  0  0  0  0  0  0  0
   33.3790   41.5790   24.0700 C   0  0  0  0  0  0  0  0  0  0  0  0
   34.9900   42.4830   22.4050 N   0  0  0  0  0  0  0  0  0  0  0  0
   36.2730   39.6280   24.9290 C   0  0  0  0  0  0  0  0  0  0  0  0
  1 16  2  0
  2  7  1  0
  2 16  1  0
  3 15  1  0
  6 12  1  0
  7 14  1  0
  7  5  1  0
  8 11  1  0
  8  2  1  0
  9 13  1  0
 10  9  1  0
 11  1  1  0
 12 13  1  0
 12  4  2  0
 15  7  1  0
 16 10  1  0
M  END
$$$$

     RDKit          3D

 11 10  0  0  0  0  0  0  0  0999 V2000
   36.4230   38.3120   24.0820 O   0  0  0  0  0  0  0  0  0  0  0  0
   33.9400   41.6510   24.6780 O   0  0  0  0  0  0  0  0  0  0  0  0
   38.3240   39.9890   23.9140 O   0  0  0  0  0  0  0  0  0  0  0  0
   38.4420   41.3850   25.6600 O   0  0  0  0  0  0  0  0  0  0  0  0
   36.1720   41.2600   23.9550 C   0  0  0  0  0  0  0  0  0  0  0  0
   34.8410   41.8730   23.5400 C   0  0  0  0  0  0  0  0  0  0  0  0
   36.6900   39.8970   25.7660 C   0  0  0  0  0  0  0  0  0  0  0  0
   37.9200   40.3860   25.0800 C   0  0  0  0  0  0  0  0  0  0  0  0
   36.1460   39.7540   24.4220 C   0  0  0  0  0  0  0  0  0  0  0  0
   34.7660   41.2680   22.1330 C   0  0  0  0  0  0  0  0  0  0  0  0
   37.1640   38.9030   26.6480 O   0  0  0  0  0  0  0  0  0  0  0  0
  3  8  2  0
  5  9  1  0
  6 10  1  0
  6  5  1  0
  6  2  1  0
  7 11  1  0
  8  4  1  0
  8  7  1  0
  9  1  1  0
  9  7  1  0
M  END
$$$$

     RDKit          3D

 13 12  0  0  0  0  0  0  0  0999 V2000
   36.1450   38.0910   24.2560 O   0  0  0  0  0  0  0  0  0  0  0  0
   37.0400   39.1710   23.7780 C   0  0  0  0  0  0  0  0  0  0  0  0
   36.5710   40.6350   24.0410 C   0  0  0  0  0  0  0  0  0  0  0  0
   38.2280   39.6320   27.4090 C   0  0  0  0  0  0  0  0  0  0  0  0
   36.9590   39.7630   26.5060 C   0  0  0  0  0  0  0  0  0  0  0  0
   34.4980   42.0250   23.7770 C   0  0  0  0  0  0  0  0  0  0  0  0
   38.5260   41.0140   27.7580 N   0  0  0  0  0  0  0  0  0  0  0  0
   37.3890   40.2470   21.6560 O   0  0  0  0  0  0  0  0  0  0  0  0
   36.3760   39.7960   22.6420 C   0  0  0  0  0  0  0  0  0  0  0  0
   37.4180   41.9690   23.6580 O   0  0  0  0  0  0  0  0  0  0  0  0
   35.2580   40.9990   24.4430 O   0  0  0  0  0  0  0  0  0  0  0  0
   38.3060   38.5560   28.5600 C   0  0  0  0  0  0  0  0  0  0  0  0
   37.4410   40.3960   25.3720 O   0  0  0  0  0  0  0  0  0  0  0  0
  2  3  1  0
  2  1  1  0
  3 10  1  0
  3 11  1  0
  3 13  1  0
  4  7  1  0
  4 12  1  0
  5  4  1  0
  6 11  1  0
  8  9  1  0
  9  2  1  0
 13  5  1  0
M  END
$$$$

     RDKit          3D

  5  4  0  0  0  0  0  0  0  0999 V2000
   36.0090   41.4810   25.1270 C   0  0  0  0  0  0  0  0  0  0  0  0
   36.4260   39.3170   26.0560 O   0  0  0  0  0  0  0  0  0  0  0  0
   37.8950   40.1370   24.6410 O   0  0  0  0  0  0  0  0  0  0  0  0
   34.6180   41.4560   24.9430 O   0  0  0  0  0  0  0  0  0  0  0  0
   36.7570   40.1940   25.2120 C   0  0  0  0  0  0  0  0  0  0  0  0
  1  5  1  0
  3  5  2  0
  4  1  1  0
  5  2  1  0
M  END
$$$$

     RDKit          3D

 13 12  0  0  0  0  0  0  0  0999 V2000
   38.6200   42.2760   25.7840 N   0  0  0  0  0  0  0  0  0  0  0  0
   41.0120   43.0250   25.6320 C   0  0  0  0  0  0  0  0  0  0  0  0
   38.5390   39.8360   24.1310 O   0  0  0  0  0  0  0  0  0  0  0  0
   34.4420   39.8340   22.7460 S   0  0  0  0  0  0  0  0  0  0  0  0
   34.9200   41.9050   24.2910 C   0  0  0  0  0  0  0  0  0  0  0  0
   34.3400   40.5230   24.3610 C   0  0  0  0  0  0  0  0  0  0  0  0
   37.6870   41.4160   26.4670 C   0  0  0  0  0  0  0  0  0  0  0  0
   36.2460   41.9350   24.8020 N   0  0  0  0  0  0  0  0  0  0  0  0
   40.2440   41.1790   27.1550 O   0  0  0  0  0  0  0  0  0  0  0  0
   36.8540   38.5060   24.5540 O   0  0  0  0  0  0  0  0  0  0  0  0
   37.4110   39.6730   24.6410 C   0  0  0  0  0  0  0  0  0  0  0  0
   39.9050   42.1630   26.2040 C   0  0  0  0  0  0  0  0  0  0  0  0
   36.7530   40.7750   25.4680 C   0  0  0  0  0  0  0  0  0  0  0  0
  1 12  1  0
  1  7  1  0
  2 12  1  0
  3 11  2  0
  4  6  1  0
  5  6  1  0
  5  8  1  0
  8 13  1  0
 10 11  1  0
 11 13  1  0
 12  9  2  0
 13  7  1  0
M  END
$$$$

     RDKit          3D

 18 18  0  0  0  0  0  0  0  0999 V2000
   35.0900   42.0570   21.4970 P   0  0  0  0  0  0  0  0  0  0  0  0
   36.9620   40.5640   22.7710 C   0  0  0  0  0  0  0  0  0  0  0  0
   35.8360   38.3440   24.8710 S   0  0  0  0  0  0  0  0  0  0  0  0
   36.6940   39.7130   25.7130 C   0  0  0  0  0  0  0  0  0  0  0  0
   36.7270   39.9780   27.0700 C   0  0  0  0  0  0  0  0  0  0  0  0
   36.4980   41.3580   21.6960 O   0  0  0  0  0  0  0  0  0  0  0  0
   38.1250   38.8720   28.3570 C   0  0  0  0  0  0  0  0  0  0  0  0
   38.2990   38.1220   29.1960 N   0  0  0  0  0  0  0  0  0  0  0  0
   36.9680   39.1080   22.2840 C   0  0  0  0  0  0  0  0  0  0  0  0
   34.2240   41.3360   19.0900 O   0  0  0  0  0  0  0  0  0  0  0  0
   38.0280   39.8970   27.4130 C   0  0  0  0  0  0  0  0  0  0  0  0
   35.5310   43.3740   22.6480 C   0  0  0  0  0  0  0  0  0  0  0  0
   33.6860   42.1360   21.6180 O   0  0  0  0  0  0  0  0  0  0  0  0
   36.6720   40.8870   25.1960 N   0  0  0  0  0  0  0  0  0  0  0  0
   34.7610   41.0730   20.0740 C   0  0  0  0  0  0  0  0  0  0  0  0
   35.9560   41.1970   23.9720 C   0  0  0  0  0  0  0  0  0  0  0  0
   38.9480   40.0230   26.3870 N   0  0  0  0  0  0  0  0  0  0  0  0
   36.0090   42.7910   23.8720 C   0  0  0  0  0  0  0  0  0  0  0  0
  1 13  2  0
  1  6  1  0
  1 12  1  0
  2  9  1  0
  2 16  1  0
  3  4  2  0
  4  5  1  0
  5 11  1  0
  6  2  1  0
  7  8  3  0
 10 15  2  0
 11 17  1  0
 11  7  1  0
 12 18  1  0
 14  4  1  0
 15  1  1  0
 16 14  1  0
 18 16  1  0
M  END
$$$$

     RDKit          3D

  5  5  0  0  0  0  0  0  0  0999 V2000
   35.5430   40.4210   25.6930 S   0  0  0  0  0  0  0  0  0  0  0  0
   36.6770   41.4920   25.0440 C   0  0  0  0  0  0  0  0  0  0  0  0
   36.6670   39.4240   26.6680 C   0  0  0  0  0  0  0  0  0  0  0  0
   37.8730   39.6980   26.1060 N   0  0  0  0  0  0  0  0  0  0  0  0
   37.8580   40.6910   25.2900 N   0  0  0  0  0  0  0  0  0  0  0  0
  1  3  1  0
  2  5  1  0
  2  1  1  0
  4  3  1  0
  5  4  1  0
M  END
$$$$

     RDKit          3D

 31 34  0  0  0  0  0  0  0  0999 V2000
   35.7830   33.3450   37.1760 C   0  0  0  0  0  0  0  0  0  0  0  0
   35.1750   34.5660   36.5790 C   0  0  0  0  0  0  0  0  0  0  0  0
   34.9690   36.0040   34.7360 C   0  0  0  0  0  0  0  0  0  0  0  0
   36.4590   39.5000   30.6240 C   0  0  0  0  0  0  0  0  0  0  0  0
   33.3480   37.7430   33.3700 C   0  0  0  0  0  0  0  0  0  0  0  0
   36.0820   37.9370   23.2730 C   0  0  0  0  0  0  0  0  0  0  0  0
   35.9900   38.4610   31.4560 C   0  0  0  0  0  0  0  0  0  0  0  0
   35.3360   40.8330   24.0000 O   0  0  0  0  0  0  0  0  0  0  0  0
   36.1650   40.1290   24.3180 C   0  0  0  0  0  0  0  0  0  0  0  0
   37.9760   38.2840   29.4050 C   0  0  0  0  0  0  0  0  0  0  0  0
   37.4620   38.2850   27.9320 C   0  0  0  0  0  0  0  0  0  0  0  0
   33.0480   37.6880   34.7660 C   0  0  0  0  0  0  0  0  0  0  0  0
   38.1350   42.5950   24.7180 C   0  0  0  0  0  0  0  0  0  0  0  0
   35.6580   34.9860   35.3690 C   0  0  0  0  0  0  0  0  0  0  0  0
   38.8160   42.4380   26.0560 C   0  0  0  0  0  0  0  0  0  0  0  0
   40.2500   42.5190   22.9570 C   0  0  0  0  0  0  0  0  0  0  0  0
   38.1110   39.9610   25.8160 C   0  0  0  0  0  0  0  0  0  0  0  0
   40.0410   41.0880   23.1030 O   0  0  0  0  0  0  0  0  0  0  0  0
   37.0500   38.9510   23.8020 C   0  0  0  0  0  0  0  0  0  0  0  0
   33.9630   35.0690   37.1850 C   0  0  0  0  0  0  0  0  0  0  0  0
   33.8650   36.5320   35.3660 C   0  0  0  0  0  0  0  0  0  0  0  0
   39.1970   43.3660   23.8080 C   0  0  0  0  0  0  0  0  0  0  0  0
   34.7770   38.8370   32.8390 S   0  0  0  0  0  0  0  0  0  0  0  0
   37.9530   39.6590   27.4440 C   0  0  0  0  0  0  0  0  0  0  0  0
   38.1580   40.5800   28.6010 O   0  0  0  0  0  0  0  0  0  0  0  0
   36.7560   42.8000   24.3020 O   0  0  0  0  0  0  0  0  0  0  0  0
   33.4290   35.9960   36.5310 C   0  0  0  0  0  0  0  0  0  0  0  0
   40.1310   42.9960   26.0670 O   0  0  0  0  0  0  0  0  0  0  0  0
   38.4970   41.1370   24.9680 C   0  0  0  0  0  0  0  0  0  0  0  0
   36.9610   39.2420   25.2480 C   0  0  0  0  0  0  0  0  0  0  0  0
   37.5650   39.6960   29.8010 C   0  0  0  0  0  0  0  0  0  0  0  0
  2  1  1  0
  2 20  1  0
  3 21  2  0
  3 14  1  0
  4  7  1  0
  5 12  1  0
  7 23  1  0
  8  9  2  0
  9 30  1  0
 10 31  1  0
 11 10  1  0
 12 21  1  0
 13 26  1  0
 13 29  1  0
 13 15  1  0
 14  2  2  0
 15 28  1  0
 16 18  1  0
 16 22  1  0
 17 29  1  0
 19  6  1  0
 19  9  1  0
 19 30  1  0
 21 27  1  0
 22 13  1  0
 23  5  1  0
 24 17  1  0
 24 11  1  0
 24 25  1  0
 25 31  1  0
 27 20  2  0
 29 15  1  0
 30 17  1  0
 31  4  1  0
M  END
$$$$

     RDKit          3D

 10  9  0  0  0  0  0  0  0  0999 V2000
   35.1680   41.5540   24.7510 C   0  0  0  0  0  0  0  0  0  0  0  0
   36.3100   41.0640   23.9140 C   0  0  0  0  0  0  0  0  0  0  0  0
   36.4270   38.6510   25.6650 C   0  0  0  0  0  0  0  0  0  0  0  0
   37.8310   39.1920   27.9220 N   0  0  0  0  0  0  0  0  0  0  0  0
   37.4210   40.5840   24.7670 N   0  0  0  0  0  0  0  0  0  0  0  0
   36.7760   42.1180   22.9920 C   0  0  0  0  0  0  0  0  0  0  0  0
   37.4610   40.3550   27.1360 C   0  0  0  0  0  0  0  0  0  0  0  0
   36.6930   40.0120   25.8700 C   0  0  0  0  0  0  0  0  0  0  0  0
   36.5900   38.1500   24.3090 O   0  0  0  0  0  0  0  0  0  0  0  0
   38.8480   41.3900   27.0740 Cl  0  0  0  0  0  0  0  0  0  0  0  0
  2  1  1  0
  2  5  1  0
  5  8  1  0
  6  2  1  0
  7 10  1  0
  7  4  1  0
  8  3  1  0
  8  7  1  0
  9  3  1  0
M  END
$$$$

     RDKit          3D

 14 14  0  0  0  0  0  0  0  0999 V2000
   38.2480   40.3100   23.4460 O   0  0  0  0  0  0  0  0  0  0  0  0
   37.2660   39.0600   26.7200 C   0  0  0  0  0  0  0  0  0  0  0  0
   38.4820   39.7370   26.0500 C   0  0  0  0  0  0  0  0  0  0  0  0
   38.0840   40.7220   24.8500 C   0  0  0  0  0  0  0  0  0  0  0  0
   34.4050   37.3680   28.6890 O   0  0  0  0  0  0  0  0  0  0  0  0
   36.5130   40.8560   24.9230 C   0  0  0  0  0  0  0  0  0  0  0  0
   36.4170   39.0030   25.6580 O   0  0  0  0  0  0  0  0  0  0  0  0
   35.5550   43.0310   24.2870 O   0  0  0  0  0  0  0  0  0  0  0  0
   35.0150   38.0630   27.8010 C   0  0  0  0  0  0  0  0  0  0  0  0
   36.2670   42.3100   24.8430 C   0  0  0  0  0  0  0  0  0  0  0  0
   34.2050   38.7560   27.2500 O   0  0  0  0  0  0  0  0  0  0  0  0
   35.7400   40.0320   25.8090 C   0  0  0  0  0  0  0  0  0  0  0  0
   36.5860   38.0790   27.7360 C   0  0  0  0  0  0  0  0  0  0  0  0
   37.4070   37.4500   28.8240 C   0  0  0  0  0  0  0  0  0  0  0  0
  2 13  1  0
  3  2  1  0
  4  1  1  0
  4  6  1  0
  4  3  1  0
  6 10  1  0
  6 12  1  0
  7 12  1  0
  7  2  1  0
  8 10  2  0
  9  5  1  0
 11  9  2  0
 13  9  1  0
 13 14  1  0
M  END
$$$$

     RDKit          3D

  9  8  0  0  0  0  0  0  0  0999 V2000
   35.6980   41.1640   24.1190 C   0  0  0  0  0  0  0  0  0  0  0  0
   36.4210   39.0130   25.2950 C   0  0  0  0  0  0  0  0  0  0  0  0
   36.6150   40.9600   22.9730 C   0  0  0  0  0  0  0  0  0  0  0  0
   34.4040   41.9280   23.8340 C   0  0  0  0  0  0  0  0  0  0  0  0
   36.4300   38.4990   24.1330 O   0  0  0  0  0  0  0  0  0  0  0  0
   35.9800   40.5610   25.5080 C   0  0  0  0  0  0  0  0  0  0  0  0
   37.3360   40.8610   26.1710 C   0  0  0  0  0  0  0  0  0  0  0  0
   36.7150   38.3580   26.3110 O   0  0  0  0  0  0  0  0  0  0  0  0
   38.5940   40.1090   26.6030 N   0  0  0  0  0  0  0  0  0  0  0  0
  1  6  1  0
  2  6  1  0
  2  8  1  0
  3  1  1  0
  4  1  1  0
  5  2  2  0
  6  7  1  0
  7  9  1  0
M  END
$$$$
