
     RDKit          3D

  7  6  0  0  0  0  0  0  0  0999 V2000
   43.1390   39.2600   32.9820 O   0  0  0  0  0  0  0  0  0  0  0  0
   40.4740   38.6540   31.8530 N   0  0  0  0  0  0  0  0  0  0  0  0
   41.6390   37.7100   31.9740 C   0  0  0  0  0  0  0  0  0  0  0  0
   43.9720   37.9430   31.4370 O   0  0  0  0  0  0  0  0  0  0  0  0
   39.3020   37.7550   31.7750 C   0  0  0  0  0  0  0  0  0  0  0  0
   40.6000   39.4320   30.5830 C   0  0  0  0  0  0  0  0  0  0  0  0
   43.0140   38.3510   32.1330 C   0  0  0  0  0  0  0  0  0  0  0  0
  2  3  1  0
  3  7  1  0
  4  7  2  0
  5  2  1  0
  6  2  1  0
  7  1  1  0
M  END
$$$$

     RDKit          3D

 11 11  0  0  0  0  0  0  0  0999 V2000
   43.9090   38.5440   29.2780 C   0  0  0  0  0  0  0  0  0  0  0  0
   42.0850   39.1300   33.4110 N   0  0  0  0  0  0  0  0  0  0  0  0
   42.4220   38.6090   29.6960 C   0  0  0  0  0  0  0  0  0  0  0  0
   44.4230   39.8780   29.4500 O   0  0  0  0  0  0  0  0  0  0  0  0
   40.2240   38.6340   30.7350 C   0  0  0  0  0  0  0  0  0  0  0  0
   40.3970   38.8780   28.5400 C   0  0  0  0  0  0  0  0  0  0  0  0
   42.2530   38.1560   32.4470 C   0  0  0  0  0  0  0  0  0  0  0  0
   41.7720   38.8240   30.9620 C   0  0  0  0  0  0  0  0  0  0  0  0
   40.0070   38.1600   29.4110 C   0  0  0  0  0  0  0  0  0  0  0  0
   41.6070   36.8210   32.7570 N   0  0  0  0  0  0  0  0  0  0  0  0
   41.7420   39.5320   28.7120 C   0  0  0  0  0  0  0  0  0  0  0  0
  1  4  1  0
  3  1  1  0
  3  8  1  0
  5  8  1  0
  6 11  1  0
  6  9  1  0
  7 10  1  0
  7  2  1  0
  8  7  1  0
  9  5  1  0
 11  3  1  0
M  END
$$$$

     RDKit          3D

 11 11  0  0  0  0  0  0  0  0999 V2000
   42.5840   39.2570   28.6930 C   0  0  0  0  0  0  0  0  0  0  0  0
   40.1380   41.4970   27.8710 C   0  0  0  0  0  0  0  0  0  0  0  0
   40.2570   40.0910   28.4510 C   0  0  0  0  0  0  0  0  0  0  0  0
   41.3840   37.7910   32.5690 N   0  0  0  0  0  0  0  0  0  0  0  0
   42.2750   38.3330   29.8140 N   0  0  0  0  0  0  0  0  0  0  0  0
   40.9410   38.9440   31.8620 C   0  0  0  0  0  0  0  0  0  0  0  0
   41.5860   41.0640   30.3250 O   0  0  0  0  0  0  0  0  0  0  0  0
   40.5470   40.1390   29.9430 C   0  0  0  0  0  0  0  0  0  0  0  0
   41.3790   39.3130   27.7510 C   0  0  0  0  0  0  0  0  0  0  0  0
   43.3410   38.2120   30.8780 C   0  0  0  0  0  0  0  0  0  0  0  0
   40.9360   38.7230   30.3860 C   0  0  0  0  0  0  0  0  0  0  0  0
  1  5  1  0
  3  2  1  0
  3  8  1  0
  5 11  1  0
  5 10  1  0
  6  4  1  0
  8  7  1  0
  8 11  1  0
  9  3  1  0
  9  1  1  0
 11  6  1  0
M  END
$$$$

     RDKit          3D

 11 10  0  0  0  0  0  0  0  0999 V2000
   40.6590   37.9780   31.1070 C   0  0  0  0  0  0  0  0  0  0  0  0
   44.3990   41.6510   29.4810 O   0  0  0  0  0  0  0  0  0  0  0  0
   42.1180   38.5460   30.7870 C   0  0  0  0  0  0  0  0  0  0  0  0
   43.0390   41.4500   31.5060 O   0  0  0  0  0  0  0  0  0  0  0  0
   39.9410   39.0280   31.2410 C   0  0  0  0  0  0  0  0  0  0  0  0
   42.1400   39.5390   29.5190 C   0  0  0  0  0  0  0  0  0  0  0  0
   43.1840   37.9200   30.1920 O   0  0  0  0  0  0  0  0  0  0  0  0
   40.9320   40.3280   29.7630 O   0  0  0  0  0  0  0  0  0  0  0  0
   43.6300   40.5700   29.9170 P   0  0  0  0  0  0  0  0  0  0  0  0
   40.6790   37.3200   32.6550 O   0  0  0  0  0  0  0  0  0  0  0  0
   44.7840   39.4150   29.3840 O   0  0  0  0  0  0  0  0  0  0  0  0
  1  5  1  0
  1 10  1  0
  2  9  1  0
  3  7  1  0
  3  1  1  0
  6  8  1  0
  6  9  1  0
  6  3  1  0
  9  4  1  0
 11  9  2  0
M  END
$$$$

     RDKit          3D

 13 12  0  0  0  0  0  0  0  0999 V2000
   42.9160   37.6470   30.5410 N   0  0  0  0  0  0  0  0  0  0  0  0
   40.6860   38.6960   31.0160 C   0  0  0  0  0  0  0  0  0  0  0  0
   39.8730   38.9150   32.2260 N   0  0  0  0  0  0  0  0  0  0  0  0
   40.9650   42.2450   28.3420 C   0  0  0  0  0  0  0  0  0  0  0  0
   41.2820   36.4510   31.9350 C   0  0  0  0  0  0  0  0  0  0  0  0
   40.3020   39.8440   30.0440 C   0  0  0  0  0  0  0  0  0  0  0  0
   41.3110   39.8840   28.9180 C   0  0  0  0  0  0  0  0  0  0  0  0
   40.7250   40.8040   27.7990 C   0  0  0  0  0  0  0  0  0  0  0  0
   41.5440   40.5890   26.5150 C   0  0  0  0  0  0  0  0  0  0  0  0
   39.2620   40.3830   27.5540 C   0  0  0  0  0  0  0  0  0  0  0  0
   42.4800   38.4210   32.8000 C   0  0  0  0  0  0  0  0  0  0  0  0
   41.6650   38.5120   28.7620 O   0  0  0  0  0  0  0  0  0  0  0  0
   41.8540   37.8080   31.5580 C   0  0  0  0  0  0  0  0  0  0  0  0
  1 13  1  0
  2 13  1  0
  2  3  1  0
  6  2  1  0
  7 12  1  0
  7  6  1  0
  8  4  1  0
  8  7  1  0
  9  8  1  0
 10  8  1  0
 13  5  1  0
 13 11  1  0
M  END
$$$$

     RDKit          3D

 16 16  0  0  0  0  0  0  0  0999 V2000
   41.4350   42.8630   27.9850 O   0  0  0  0  0  0  0  0  0  0  0  0
   40.6650   37.9410   30.3070 C   0  0  0  0  0  0  0  0  0  0  0  0
   42.6610   37.6890   31.9090 C   0  0  0  0  0  0  0  0  0  0  0  0
   43.6060   38.5200   30.9690 C   0  0  0  0  0  0  0  0  0  0  0  0
   40.8920   39.3110   28.4130 C   0  0  0  0  0  0  0  0  0  0  0  0
   44.8720   39.1570   31.4890 C   0  0  0  0  0  0  0  0  0  0  0  0
   41.3170   41.5910   27.6080 C   0  0  0  0  0  0  0  0  0  0  0  0
   43.0630   40.5510   29.7800 O   0  0  0  0  0  0  0  0  0  0  0  0
   40.4390   36.4730   32.2040 C   0  0  0  0  0  0  0  0  0  0  0  0
   41.4420   38.9300   29.5850 N   0  0  0  0  0  0  0  0  0  0  0  0
   42.0940   41.0730   26.8490 O   0  0  0  0  0  0  0  0  0  0  0  0
   40.5990   38.3260   27.4470 O   0  0  0  0  0  0  0  0  0  0  0  0
   41.1020   37.7900   31.6850 C   0  0  0  0  0  0  0  0  0  0  0  0
   40.6190   38.9950   32.2320 O   0  0  0  0  0  0  0  0  0  0  0  0
   42.6780   39.4510   30.1230 C   0  0  0  0  0  0  0  0  0  0  0  0
   40.2960   40.6930   28.3050 C   0  0  0  0  0  0  0  0  0  0  0  0
  2 13  1  0
  4  6  1  0
  4  3  1  0
  5 10  1  0
  7  1  1  0
  7 16  1  0
  8 15  2  0
 10 15  1  0
 10  2  1  0
 11  7  2  0
 12  5  2  0
 13  3  1  0
 13  9  1  0
 13 14  1  0
 15  4  1  0
 16  5  1  0
M  END
$$$$

     RDKit          3D

 19 18  0  0  0  0  0  0  0  0999 V2000
   40.4800   37.8830   31.1540 C   0  0  0  0  0  0  0  0  0  0  0  0
   41.7180   38.8110   30.9930 C   0  0  0  0  0  0  0  0  0  0  0  0
   41.4950   41.3980   31.7430 O   0  0  0  0  0  0  0  0  0  0  0  0
   42.5810   38.6980   33.9540 O   0  0  0  0  0  0  0  0  0  0  0  0
   42.7650   38.1080   30.3840 O   0  0  0  0  0  0  0  0  0  0  0  0
   42.5970   43.5740   34.0570 C   0  0  0  0  0  0  0  0  0  0  0  0
   40.1240   38.3850   28.4570 C   0  0  0  0  0  0  0  0  0  0  0  0
   43.4280   40.9700   33.4670 C   0  0  0  0  0  0  0  0  0  0  0  0
   40.1560   37.8330   29.8780 N   0  0  0  0  0  0  0  0  0  0  0  0
   39.4930   38.3080   32.2060 O   0  0  0  0  0  0  0  0  0  0  0  0
   41.8260   40.0040   31.9320 C   0  0  0  0  0  0  0  0  0  0  0  0
   44.2460   44.2720   32.3890 O   0  0  0  0  0  0  0  0  0  0  0  0
   43.5680   43.3360   33.0040 C   0  0  0  0  0  0  0  0  0  0  0  0
   40.0220   41.0800   29.0160 S   0  0  0  0  0  0  0  0  0  0  0  0
   40.7320   39.7620   27.9670 C   0  0  0  0  0  0  0  0  0  0  0  0
   40.3820   39.9220   26.4600 C   0  0  0  0  0  0  0  0  0  0  0  0
   43.8580   42.0290   32.5760 C   0  0  0  0  0  0  0  0  0  0  0  0
   41.1330   36.4870   31.7590 C   0  0  0  0  0  0  0  0  0  0  0  0
   42.9650   39.6610   32.9380 C   0  0  0  0  0  0  0  0  0  0  0  0
  1 18  1  0
  1 10  1  0
  2  5  1  0
  2  1  1  0
  2 11  1  0
  7  9  2  3
  9  1  1  0
 11  3  1  0
 11 19  1  0
 12 13  1  0
 13  6  1  0
 15 16  1  0
 15  7  1  0
 15 14  1  0
 17 13  1  0
 17  8  1  0
 19  8  1  0
 19  4  1  0
M  END
$$$$

     RDKit          3D

 10  9  0  0  0  0  0  0  0  0999 V2000
   42.4070   38.5040   30.9270 N   0  0  0  0  0  0  0  0  0  0  0  0
   42.3640   41.0080   30.3990 N   0  0  0  0  0  0  0  0  0  0  0  0
   42.9000   39.6270   29.7560 S   0  0  0  0  0  0  0  0  0  0  0  0
   43.0780   37.3440   30.7670 N   0  0  0  0  0  0  0  0  0  0  0  0
   44.3320   39.5320   29.7380 O   0  0  0  0  0  0  0  0  0  0  0  0
   40.9330   37.2920   32.2190 C   0  0  0  0  0  0  0  0  0  0  0  0
   41.1620   39.7510   32.6140 C   0  0  0  0  0  0  0  0  0  0  0  0
   39.9520   38.9680   30.6140 C   0  0  0  0  0  0  0  0  0  0  0  0
   42.1570   39.1700   28.6050 O   0  0  0  0  0  0  0  0  0  0  0  0
   41.1090   38.6410   31.5770 C   0  0  0  0  0  0  0  0  0  0  0  0
  1 10  1  0
  3  2  1  0
  3  1  1  0
  4  1  1  0
  5  3  2  0
  8 10  1  0
  9  3  2  0
 10  6  1  0
 10  7  1  0
M  END
$$$$

     RDKit          3D

  4  3  0  0  0  0  0  0  0  0999 V2000
   41.4190   39.3930   31.2280 C   0  0  0  0  0  0  0  0  0  0  0  0
   41.8260   36.9410   31.4540 N   0  0  0  0  0  0  0  0  0  0  0  0
   40.3920   37.1100   31.5750 C   0  0  0  0  0  0  0  0  0  0  0  0
   40.1330   38.6180   31.4070 C   0  0  0  0  0  0  0  0  0  0  0  0
  1  4  1  0
  2  3  1  0
  4  3  1  0
M  END
$$$$

     RDKit          3D

  7  6  0  0  0  0  0  0  0  0999 V2000
   41.8020   36.7920   31.9500 N   0  0  0  0  0  0  0  0  0  0  0  0
   41.2310   37.9890   31.6820 C   0  0  0  0  0  0  0  0  0  0  0  0
   41.8950   38.9550   31.1450 N   0  0  0  0  0  0  0  0  0  0  0  0
   40.0250   38.2150   31.8820 O   0  0  0  0  0  0  0  0  0  0  0  0
   42.0440   40.3400   31.5280 C   0  0  0  0  0  0  0  0  0  0  0  0
   41.6810   38.9980   29.7440 O   0  0  0  0  0  0  0  0  0  0  0  0
   43.1280   40.3730   32.6150 C   0  0  0  0  0  0  0  0  0  0  0  0
  2  4  2  0
  2  1  1  0
  3  5  1  0
  3  2  1  0
  5  7  1  0
  6  3  1  0
M  END
$$$$

     RDKit          3D

 10 10  0  0  0  0  0  0  0  0999 V2000
   40.5460   37.4060   29.1290 O   0  0  0  0  0  0  0  0  0  0  0  0
   40.5810   38.5070   29.8930 C   0  0  0  0  0  0  0  0  0  0  0  0
   43.1110   39.9260   27.8940 O   0  0  0  0  0  0  0  0  0  0  0  0
   42.2080   38.9700   33.0650 O   0  0  0  0  0  0  0  0  0  0  0  0
   41.3470   39.4040   32.0150 C   0  0  0  0  0  0  0  0  0  0  0  0
   42.6960   41.1990   30.8850 C   0  0  0  0  0  0  0  0  0  0  0  0
   40.6720   38.1970   31.3820 C   0  0  0  0  0  0  0  0  0  0  0  0
   42.0370   40.0450   30.8200 C   0  0  0  0  0  0  0  0  0  0  0  0
   41.8790   39.2290   29.5540 C   0  0  0  0  0  0  0  0  0  0  0  0
   41.8330   40.0550   28.3120 C   0  0  0  0  0  0  0  0  0  0  0  0
  2  1  1  0
  2  7  1  0
  3 10  1  0
  5  4  1  0
  7  5  1  0
  8  6  2  0
  8  5  1  0
  9 10  1  0
  9  2  1  0
  9  8  1  0
M  END
$$$$

     RDKit          3D

  9  9  0  0  0  0  0  0  0  0999 V2000
   41.8350   39.4380   32.9500 C   0  0  0  0  0  0  0  0  0  0  0  0
   42.7490   40.9700   31.4580 O   0  0  0  0  0  0  0  0  0  0  0  0
   41.6850   37.5290   31.5390 C   0  0  0  0  0  0  0  0  0  0  0  0
   41.6420   38.0090   33.0260 C   0  0  0  0  0  0  0  0  0  0  0  0
   42.3240   38.6790   30.7370 C   0  0  0  0  0  0  0  0  0  0  0  0
   43.7780   38.2920   30.4050 C   0  0  0  0  0  0  0  0  0  0  0  0
   41.5260   40.3060   34.0060 O   0  0  0  0  0  0  0  0  0  0  0  0
   41.5080   39.0230   29.4880 C   0  0  0  0  0  0  0  0  0  0  0  0
   42.3230   39.8490   31.7250 C   0  0  0  0  0  0  0  0  0  0  0  0
  1  4  1  0
  1  7  1  0
  2  9  2  0
  3  4  1  0
  5  3  1  0
  5  9  1  0
  6  5  1  0
  8  5  1  0
  9  1  1  0
M  END
$$$$

     RDKit          3D

  9  9  0  0  0  0  0  0  0  0999 V2000
   44.6670   40.1700   32.5900 O   0  0  0  0  0  0  0  0  0  0  0  0
   42.8870   38.5670   32.8110 C   0  0  0  0  0  0  0  0  0  0  0  0
   42.1870   39.2290   31.6620 C   0  0  0  0  0  0  0  0  0  0  0  0
   42.6230   39.0760   34.1030 O   0  0  0  0  0  0  0  0  0  0  0  0
   42.8620   37.1710   32.7580 O   0  0  0  0  0  0  0  0  0  0  0  0
   44.3310   38.7860   32.3850 C   0  0  0  0  0  0  0  0  0  0  0  0
   44.3450   38.5670   30.8890 C   0  0  0  0  0  0  0  0  0  0  0  0
   40.8580   39.6580   32.3570 O   0  0  0  0  0  0  0  0  0  0  0  0
   42.9700   38.7390   30.4490 O   0  0  0  0  0  0  0  0  0  0  0  0
  2  4  1  0
  3  8  2  0
  3  2  1  0
  5  2  1  0
  6  1  1  0
  6  2  1  0
  7  6  1  0
  9  7  1  0
  9  3  1  0
M  END
$$$$

     RDKit          3D

 19 20  0  0  0  0  0  0  0  0999 V2000
   41.1620   39.3990   28.7460 C   0  0  0  0  0  0  0  0  0  0  0  0
   39.2150   38.9570   26.9060 C   0  0  0  0  0  0  0  0  0  0  0  0
   41.2910   35.6370   31.8030 C   0  0  0  0  0  0  0  0  0  0  0  0
   40.9040   40.3400   31.4770 O   0  0  0  0  0  0  0  0  0  0  0  0
   42.1580   39.9640   31.8190 C   0  0  0  0  0  0  0  0  0  0  0  0
   40.0300   39.2160   31.5510 C   0  0  0  0  0  0  0  0  0  0  0  0
   42.2210   38.6440   31.0170 C   0  0  0  0  0  0  0  0  0  0  0  0
   39.1890   41.2990   26.2720 C   0  0  0  0  0  0  0  0  0  0  0  0
   39.5960   37.9490   27.7510 C   0  0  0  0  0  0  0  0  0  0  0  0
   42.0670   39.9310   33.2930 C   0  0  0  0  0  0  0  0  0  0  0  0
   43.1590   40.3880   29.4260 O   0  0  0  0  0  0  0  0  0  0  0  0
   40.8670   38.0250   31.4140 N   0  0  0  0  0  0  0  0  0  0  0  0
   41.2140   41.1440   33.7570 O   0  0  0  0  0  0  0  0  0  0  0  0
   40.7280   40.5080   28.0320 C   0  0  0  0  0  0  0  0  0  0  0  0
   39.7270   40.2320   27.1300 C   0  0  0  0  0  0  0  0  0  0  0  0
   40.2190   36.6720   31.3880 C   0  0  0  0  0  0  0  0  0  0  0  0
   42.4230   39.2390   29.5660 C   0  0  0  0  0  0  0  0  0  0  0  0
   44.2270   38.3280   31.5330 Cl  0  0  0  0  0  0  0  0  0  0  0  0
   40.3950   38.2410   28.7850 N   0  0  0  0  0  0  0  0  0  0  0  0
  1 19  1  0
  1 17  1  0
  2 15  1  0
  2  9  2  0
  4  6  1  0
  4  5  1  0
  5 10  1  0
  7 12  1  0
  7 18  1  0
  7  5  1  0
  9 19  1  0
 10 13  1  0
 12  6  1  0
 14  1  1  0
 15  8  1  0
 15 14  1  0
 16 12  1  0
 16  3  1  0
 17 11  1  0
 17  7  1  0
M  END
$$$$

     RDKit          3D

 14 13  0  0  0  0  0  0  0  0999 V2000
   43.0630   39.0660   32.6530 C   0  0  0  0  0  0  0  0  0  0  0  0
   42.8580   40.4980   28.3520 C   0  0  0  0  0  0  0  0  0  0  0  0
   40.0930   37.1710   31.1760 C   0  0  0  0  0  0  0  0  0  0  0  0
   42.9800   40.2930   26.0080 O   0  0  0  0  0  0  0  0  0  0  0  0
   41.6450   41.2360   30.5710 O   0  0  0  0  0  0  0  0  0  0  0  0
   42.6700   41.1140   26.8680 C   0  0  0  0  0  0  0  0  0  0  0  0
   41.8630   38.6950   30.4660 C   0  0  0  0  0  0  0  0  0  0  0  0
   39.6190   39.4240   30.2780 C   0  0  0  0  0  0  0  0  0  0  0  0
   43.7060   41.4960   28.9310 F   0  0  0  0  0  0  0  0  0  0  0  0
   40.4980   38.5920   31.1000 N   0  0  0  0  0  0  0  0  0  0  0  0
   42.1290   40.1190   29.7550 C   0  0  0  0  0  0  0  0  0  0  0  0
   42.9250   38.1490   31.4520 C   0  0  0  0  0  0  0  0  0  0  0  0
   40.8030   36.1780   32.0120 C   0  0  0  0  0  0  0  0  0  0  0  0
   43.3830   39.1960   28.0110 O   0  0  0  0  0  0  0  0  0  0  0  0
  2 14  1  0
  2  9  1  0
  2 11  1  0
  3 13  1  0
  4  6  1  0
  6  2  1  0
  7 10  1  0
  7 12  1  0
  8 10  1  0
 10  3  1  0
 11  7  1  0
 11  5  1  0
 12  1  1  0
M  END
$$$$

     RDKit          3D

 10 11  0  0  0  0  0  0  0  0999 V2000
   41.6050   38.0000   31.9510 C   0  0  0  0  0  0  0  0  0  0  0  0
   41.9380   40.4770   32.2340 C   0  0  0  0  0  0  0  0  0  0  0  0
   43.2970   39.4110   29.2040 C   0  0  0  0  0  0  0  0  0  0  0  0
   43.0210   40.2990   30.2860 O   0  0  0  0  0  0  0  0  0  0  0  0
   40.6240   36.9590   31.9220 C   0  0  0  0  0  0  0  0  0  0  0  0
   43.3500   40.6080   31.5810 C   0  0  0  0  0  0  0  0  0  0  0  0
   41.1630   39.4090   31.4350 C   0  0  0  0  0  0  0  0  0  0  0  0
   42.7980   38.2750   29.7250 N   0  0  0  0  0  0  0  0  0  0  0  0
   43.6110   39.6450   28.0770 O   0  0  0  0  0  0  0  0  0  0  0  0
   41.6160   38.2540   30.4750 C   0  0  0  0  0  0  0  0  0  0  0  0
  1  5  1  0
  3  8  1  0
  3  4  1  0
  4  6  1  0
  6  2  1  0
  7  1  1  0
  7  2  1  0
  9  3  2  0
 10  8  1  0
 10  7  1  0
 10  1  1  0
M  END
$$$$

     RDKit          3D

 10 10  0  0  0  0  0  0  0  0999 V2000
   42.8260   38.1460   30.2140 N   0  0  0  0  0  0  0  0  0  0  0  0
   42.8540   39.1280   32.7890 C   0  0  0  0  0  0  0  0  0  0  0  0
   42.4360   40.5700   29.6670 C   0  0  0  0  0  0  0  0  0  0  0  0
   41.5630   38.0990   30.9560 C   0  0  0  0  0  0  0  0  0  0  0  0
   43.0060   39.2040   29.3280 C   0  0  0  0  0  0  0  0  0  0  0  0
   43.5060   39.0660   28.1960 O   0  0  0  0  0  0  0  0  0  0  0  0
   42.0320   40.7080   31.1120 C   0  0  0  0  0  0  0  0  0  0  0  0
   41.2710   36.9500   31.9280 C   0  0  0  0  0  0  0  0  0  0  0  0
   40.4110   39.6490   32.3320 O   0  0  0  0  0  0  0  0  0  0  0  0
   41.6380   39.3930   31.8770 C   0  0  0  0  0  0  0  0  0  0  0  0
  1  4  1  0
  3  7  1  0
  4 10  1  0
  4  8  1  0
  5  3  1  0
  5  1  1  0
  6  5  2  0
  7 10  1  0
 10  9  1  0
 10  2  1  0
M  END
$$$$

     RDKit          3D

  9  9  0  0  0  0  0  0  0  0999 V2000
   39.5330   40.9350   27.0660 S   0  0  0  0  0  0  0  0  0  0  0  0
   42.7580   39.1240   31.7970 N   0  0  0  0  0  0  0  0  0  0  0  0
   42.5510   38.6830   29.4710 N   0  0  0  0  0  0  0  0  0  0  0  0
   40.3980   39.7460   29.3040 C   0  0  0  0  0  0  0  0  0  0  0  0
   41.5190   38.9910   28.4960 C   0  0  0  0  0  0  0  0  0  0  0  0
   42.0250   39.0010   30.8000 C   0  0  0  0  0  0  0  0  0  0  0  0
   41.5620   38.8910   27.3160 O   0  0  0  0  0  0  0  0  0  0  0  0
   39.3500   40.6910   28.8780 C   0  0  0  0  0  0  0  0  0  0  0  0
   40.6830   39.4720   30.7380 N   0  0  0  0  0  0  0  0  0  0  0  0
  1  8  1  0
  3  6  2  0
  4  8  1  0
  4  9  1  0
  5  4  1  0
  5  3  1  0
  6  2  1  0
  7  5  2  0
  9  6  1  0
M  END
$$$$

     RDKit          3D

 12 13  0  0  0  0  0  0  0  0999 V2000
   40.9380   38.2620   31.4720 C   0  0  0  0  0  0  0  0  0  0  0  0
   42.1100   38.7960   29.1890 N   0  0  0  0  0  0  0  0  0  0  0  0
   40.9920   36.8710   32.1390 C   0  0  0  0  0  0  0  0  0  0  0  0
   40.1210   39.7720   28.7010 N   0  0  0  0  0  0  0  0  0  0  0  0
   41.7010   38.6020   27.8150 N   0  0  0  0  0  0  0  0  0  0  0  0
   40.5140   39.0370   27.6030 C   0  0  0  0  0  0  0  0  0  0  0  0
   41.0380   39.4570   29.4300 C   0  0  0  0  0  0  0  0  0  0  0  0
   44.2350   38.2720   30.0440 O   0  0  0  0  0  0  0  0  0  0  0  0
   42.3590   38.6990   31.3450 N   0  0  0  0  0  0  0  0  0  0  0  0
   43.0760   38.5700   30.1240 C   0  0  0  0  0  0  0  0  0  0  0  0
   41.1870   40.2100   32.9010 O   0  0  0  0  0  0  0  0  0  0  0  0
   41.3840   39.6620   31.5690 C   0  0  0  0  0  0  0  0  0  0  0  0
  1 12  1  0
  1  3  1  0
  2  7  1  0
  2 10  1  0
  4  7  1  0
  5  2  1  0
  6  5  1  0
  6  4  1  0
  8 10  2  0
  9  1  1  0
  9 12  1  0
 10  9  1  0
 12 11  1  0
M  END
$$$$

     RDKit          3D

 10  9  0  0  0  0  0  0  0  0999 V2000
   42.4380   39.0260   29.7690 C   0  0  0  0  0  0  0  0  0  0  0  0
   41.5690   39.8040   32.0480 C   0  0  0  0  0  0  0  0  0  0  0  0
   41.3160   39.4510   30.6100 C   0  0  0  0  0  0  0  0  0  0  0  0
   42.5470   40.1440   32.6820 O   0  0  0  0  0  0  0  0  0  0  0  0
   42.9540   37.7000   30.2810 C   0  0  0  0  0  0  0  0  0  0  0  0
   41.8770   38.8630   28.3650 C   0  0  0  0  0  0  0  0  0  0  0  0
   43.4860   40.0280   29.7170 O   0  0  0  0  0  0  0  0  0  0  0  0
   40.6210   39.6750   32.6720 O   0  0  0  0  0  0  0  0  0  0  0  0
   40.7000   40.7830   29.9400 C   0  0  0  0  0  0  0  0  0  0  0  0
   41.8660   37.1530   31.0360 O   0  0  0  0  0  0  0  0  0  0  0  0
  1  6  1  0
  1  5  1  0
  1  3  1  0
  2  8  2  0
  2  4  1  0
  3  9  1  0
  3  2  1  0
  5 10  1  0
  7  1  1  0
M  END
$$$$
