
     RDKit          3D

 20 21  0  0  0  0  0  0  0  0999 V2000
   37.6260   38.8730   25.0620 C   0  0  0  0  0  0  0  0  0  0  0  0
   42.9030   37.2320   28.0060 C   0  0  0  0  0  0  0  0  0  0  0  0
   36.8060   39.9830   24.5490 C   0  0  0  0  0  0  0  0  0  0  0  0
   41.9840   35.9870   24.9760 O   0  0  0  0  0  0  0  0  0  0  0  0
   42.2520   38.8660   29.7180 O   0  0  0  0  0  0  0  0  0  0  0  0
   37.9820   37.8800   23.8540 C   0  0  0  0  0  0  0  0  0  0  0  0
   41.9260   36.4570   30.2970 C   0  0  0  0  0  0  0  0  0  0  0  0
   39.3720   37.3750   24.0810 C   0  0  0  0  0  0  0  0  0  0  0  0
   39.9960   34.8290   30.1730 C   0  0  0  0  0  0  0  0  0  0  0  0
   40.9240   36.3170   25.7890 C   0  0  0  0  0  0  0  0  0  0  0  0
   37.0350   36.8310   23.7900 O   0  0  0  0  0  0  0  0  0  0  0  0
   40.7540   38.3820   27.3660 N   0  0  0  0  0  0  0  0  0  0  0  0
   42.3530   37.6110   29.3570 C   0  0  0  0  0  0  0  0  0  0  0  0
   41.8600   37.4610   26.8250 C   0  0  0  0  0  0  0  0  0  0  0  0
   41.2850   35.2490   29.6090 N   0  0  0  0  0  0  0  0  0  0  0  0
   39.4490   36.3440   25.2240 O   0  0  0  0  0  0  0  0  0  0  0  0
   40.6050   37.6850   23.8370 O   0  0  0  0  0  0  0  0  0  0  0  0
   39.9840   37.4660   28.1340 C   0  0  0  0  0  0  0  0  0  0  0  0
   38.9510   39.2050   25.7050 C   0  0  0  0  0  0  0  0  0  0  0  0
   39.4210   38.1440   26.8330 C   0  0  0  0  0  0  0  0  0  0  0  0
  1  3  1  0
  1 19  1  0
  2 13  1  0
  4 10  2  0
  6 11  1  0
  6  8  1  0
  6  1  1  0
  8 16  1  0
 10 14  1  0
 12 18  1  0
 13  5  1  0
 13  7  1  0
 14 12  1  0
 14  2  1  0
 15  9  1  0
 15  7  1  0
 16 10  1  0
 17  8  2  0
 20 19  1  0
 20 12  1  0
 20 18  1  0
M  END
$$$$

     RDKit          3D

  8  7  0  0  0  0  0  0  0  0999 V2000
   39.1540   37.7260   28.1340 C   0  0  0  0  0  0  0  0  0  0  0  0
   40.6830   35.8100   29.2340 C   0  0  0  0  0  0  0  0  0  0  0  0
   39.3960   36.6890   29.2660 C   0  0  0  0  0  0  0  0  0  0  0  0
   41.7920   37.5550   27.6450 C   0  0  0  0  0  0  0  0  0  0  0  0
   42.8700   36.7420   29.6940 O   0  0  0  0  0  0  0  0  0  0  0  0
   41.9720   36.3900   28.6260 C   0  0  0  0  0  0  0  0  0  0  0  0
   42.0440   37.0580   26.2930 N   0  0  0  0  0  0  0  0  0  0  0  0
   40.9590   35.4050   30.5810 O   0  0  0  0  0  0  0  0  0  0  0  0
  1  3  1  0
  2  3  1  0
  2  8  1  0
  4  6  1  0
  6  2  1  0
  6  5  1  0
  7  4  1  0
M  END
$$$$

     RDKit          3D

 12 12  0  0  0  0  0  0  0  0999 V2000
   42.0320   38.7850   25.9060 C   0  0  0  0  0  0  0  0  0  0  0  0
   42.3900   39.1730   24.8080 O   0  0  0  0  0  0  0  0  0  0  0  0
   40.9000   37.6160   27.5620 C   0  0  0  0  0  0  0  0  0  0  0  0
   39.4330   35.9770   25.5140 O   0  0  0  0  0  0  0  0  0  0  0  0
   41.1530   37.5620   26.0160 C   0  0  0  0  0  0  0  0  0  0  0  0
   39.8310   37.3220   25.3350 C   0  0  0  0  0  0  0  0  0  0  0  0
   40.2790   36.6750   28.3520 C   0  0  0  0  0  0  0  0  0  0  0  0
   42.3980   39.4310   27.1860 C   0  0  0  0  0  0  0  0  0  0  0  0
   39.8740   35.1450   30.2020 C   0  0  0  0  0  0  0  0  0  0  0  0
   40.9370   35.9390   29.4600 C   0  0  0  0  0  0  0  0  0  0  0  0
   41.5730   38.6150   28.0910 N   0  0  0  0  0  0  0  0  0  0  0  0
   39.1760   36.5380   28.0730 O   0  0  0  0  0  0  0  0  0  0  0  0
  1  5  1  0
  1  8  1  0
  2  1  2  0
  3 11  2  0
  3  7  1  0
  5  6  1  0
  5  3  1  0
  6  4  1  0
  7 10  1  0
  8 11  1  0
 10  9  1  0
 12  7  2  0
M  END
$$$$

     RDKit          3D

  6  6  0  0  0  0  0  0  0  0999 V2000
   41.6880   37.7260   29.3630 N   0  0  0  0  0  0  0  0  0  0  0  0
   40.9460   35.2510   29.5320 C   0  0  0  0  0  0  0  0  0  0  0  0
   40.7500   38.0070   28.2870 C   0  0  0  0  0  0  0  0  0  0  0  0
   42.0830   36.3150   29.7080 C   0  0  0  0  0  0  0  0  0  0  0  0
   39.6370   35.8210   29.0340 C   0  0  0  0  0  0  0  0  0  0  0  0
   39.8350   36.8340   27.8950 C   0  0  0  0  0  0  0  0  0  0  0  0
  1  4  1  0
  2  4  1  0
  3  1  1  0
  5  2  1  0
  6  3  1  0
  6  5  1  0
M  END
$$$$

     RDKit          3D

 14 14  0  0  0  0  0  0  0  0999 V2000
   40.7960   38.3970   26.4360 C   0  0  0  0  0  0  0  0  0  0  0  0
   40.1970   37.0800   26.7290 C   0  0  0  0  0  0  0  0  0  0  0  0
   38.7680   36.6060   24.8130 C   0  0  0  0  0  0  0  0  0  0  0  0
   42.0510   37.6960   28.6770 C   0  0  0  0  0  0  0  0  0  0  0  0
   39.8430   40.0580   25.3710 C   0  0  0  0  0  0  0  0  0  0  0  0
   40.2500   34.8030   29.4380 C   0  0  0  0  0  0  0  0  0  0  0  0
   38.2000   38.9920   24.4040 O   0  0  0  0  0  0  0  0  0  0  0  0
   39.3130   36.1540   26.3500 O   0  0  0  0  0  0  0  0  0  0  0  0
   40.8850   39.1100   25.2440 N   0  0  0  0  0  0  0  0  0  0  0  0
   40.0210   36.2830   29.2000 C   0  0  0  0  0  0  0  0  0  0  0  0
   41.4430   39.2000   27.1940 O   0  0  0  0  0  0  0  0  0  0  0  0
   40.7270   35.8720   30.2810 N   0  0  0  0  0  0  0  0  0  0  0  0
   40.8520   37.0060   28.1300 C   0  0  0  0  0  0  0  0  0  0  0  0
   38.9400   38.1000   24.8950 C   0  0  0  0  0  0  0  0  0  0  0  0
  1  2  1  0
  1 11  2  0
  2  8  1  0
  2 13  1  0
  3 14  1  0
  3  8  1  0
  6 12  1  0
  7 14  2  0
  9  5  1  0
  9  1  1  0
 10 13  1  0
 10  6  1  0
 10 12  1  0
 13  4  1  0
M  END
$$$$

     RDKit          3D

 22 23  0  0  0  0  0  0  0  0999 V2000
   39.0440   36.9100   26.0180 C   0  0  0  0  0  0  0  0  0  0  0  0
   33.9250   36.6720   26.6640 C   0  0  0  0  0  0  0  0  0  0  0  0
   40.4610   37.1390   28.2660 P   0  0  0  0  0  0  0  0  0  0  0  0
   40.6750   38.2550   29.1300 O   0  0  0  0  0  0  0  0  0  0  0  0
   38.0730   37.9870   25.5350 C   0  0  0  0  0  0  0  0  0  0  0  0
   30.9340   36.3020   27.1110 C   0  0  0  0  0  0  0  0  0  0  0  0
   31.8960   35.3860   27.5840 O   0  0  0  0  0  0  0  0  0  0  0  0
   35.2170   35.8010   25.4790 C   0  0  0  0  0  0  0  0  0  0  0  0
   39.0860   37.2450   27.4500 O   0  0  0  0  0  0  0  0  0  0  0  0
   33.7410   34.3510   26.6410 C   0  0  0  0  0  0  0  0  0  0  0  0
   33.0700   35.4780   26.8480 C   0  0  0  0  0  0  0  0  0  0  0  0
   38.7680   35.5790   23.7180 O   0  0  0  0  0  0  0  0  0  0  0  0
   38.7630   38.7820   24.5690 O   0  0  0  0  0  0  0  0  0  0  0  0
   35.1480   36.7250   26.4350 C   0  0  0  0  0  0  0  0  0  0  0  0
   36.0340   36.0700   24.3280 O   0  0  0  0  0  0  0  0  0  0  0  0
   34.7280   34.5620   25.6830 C   0  0  0  0  0  0  0  0  0  0  0  0
   38.3450   35.8610   25.0760 C   0  0  0  0  0  0  0  0  0  0  0  0
   39.1780   34.9600   29.2070 C   0  0  0  0  0  0  0  0  0  0  0  0
   40.1290   35.8650   29.4380 C   0  0  0  0  0  0  0  0  0  0  0  0
   37.2170   36.8970   24.8100 C   0  0  0  0  0  0  0  0  0  0  0  0
   41.5250   36.8090   27.3290 O   0  0  0  0  0  0  0  0  0  0  0  0
   41.3780   35.2550   29.8690 N   0  0  0  0  0  0  0  0  0  0  0  0
  1  9  1  0
  2 11  1  0
  3 21  2  0
  3  4  1  0
  3 19  1  0
  5 13  1  0
  5  1  1  0
  6  7  1  0
  8 15  1  0
  8 16  1  0
  8 14  1  0
  9  3  1  0
 10 11  1  0
 11  7  1  0
 14  2  1  0
 16 10  1  0
 17 12  1  0
 17  1  1  0
 19 18  1  0
 19 22  1  0
 20 15  1  0
 20 17  1  0
 20  5  1  0
M  END
$$$$

     RDKit          3D

 12 14  0  0  0  0  0  0  0  0999 V2000
   42.2220   36.4150   24.1930 O   0  0  0  0  0  0  0  0  0  0  0  0
   39.3620   37.1420   28.5340 C   0  0  0  0  0  0  0  0  0  0  0  0
   41.2000   38.5670   29.4040 C   0  0  0  0  0  0  0  0  0  0  0  0
   41.6280   37.4240   27.3280 C   0  0  0  0  0  0  0  0  0  0  0  0
   42.4100   38.1230   28.5460 C   0  0  0  0  0  0  0  0  0  0  0  0
   42.7480   37.1920   25.0540 C   0  0  0  0  0  0  0  0  0  0  0  0
   44.1490   37.2080   27.0580 N   0  0  0  0  0  0  0  0  0  0  0  0
   40.4350   37.2770   26.2680 C   0  0  0  0  0  0  0  0  0  0  0  0
   39.1110   37.6030   27.0270 C   0  0  0  0  0  0  0  0  0  0  0  0
   43.2950   38.2700   24.6890 O   0  0  0  0  0  0  0  0  0  0  0  0
   40.8000   37.2260   28.6640 C   0  0  0  0  0  0  0  0  0  0  0  0
   42.7460   36.8570   26.5170 C   0  0  0  0  0  0  0  0  0  0  0  0
  1  6  2  0
  4 12  1  0
  4  5  1  0
  4 11  1  0
  5 11  1  0
  5  3  1  0
  6 12  1  0
  8  9  1  0
  8  4  1  0
  9  2  1  0
 10  6  1  0
 11  2  1  0
 11  3  1  0
 12  7  1  0
M  END
$$$$

     RDKit          3D

 21 22  0  0  0  0  0  0  0  0999 V2000
   42.5530   37.9050   28.1180 C   0  0  0  0  0  0  0  0  0  0  0  0
   36.2310   40.0750   24.6430 N   0  0  0  0  0  0  0  0  0  0  0  0
   43.9380   38.8720   29.8780 O   0  0  0  0  0  0  0  0  0  0  0  0
   38.8940   37.9070   25.7770 C   0  0  0  0  0  0  0  0  0  0  0  0
   40.4620   35.5450   29.0330 C   0  0  0  0  0  0  0  0  0  0  0  0
   37.0480   38.9280   24.6960 C   0  0  0  0  0  0  0  0  0  0  0  0
   38.7170   36.7520   25.0910 C   0  0  0  0  0  0  0  0  0  0  0  0
   43.0620   39.1310   29.0090 C   0  0  0  0  0  0  0  0  0  0  0  0
   39.5220   36.2660   28.2200 O   0  0  0  0  0  0  0  0  0  0  0  0
   40.4990   37.3260   27.6820 C   0  0  0  0  0  0  0  0  0  0  0  0
   40.5750   38.9310   26.9500 N   0  0  0  0  0  0  0  0  0  0  0  0
   41.3200   36.4910   29.5230 O   0  0  0  0  0  0  0  0  0  0  0  0
   39.9390   38.0210   26.6640 C   0  0  0  0  0  0  0  0  0  0  0  0
   42.4740   40.2070   28.9030 O   0  0  0  0  0  0  0  0  0  0  0  0
   36.8830   37.8350   23.8770 C   0  0  0  0  0  0  0  0  0  0  0  0
   39.4840   35.6680   25.4420 O   0  0  0  0  0  0  0  0  0  0  0  0
   37.7140   36.7370   24.0540 C   0  0  0  0  0  0  0  0  0  0  0  0
   39.6940   34.8340   30.1310 C   0  0  0  0  0  0  0  0  0  0  0  0
   42.8240   36.7490   27.1870 O   0  0  0  0  0  0  0  0  0  0  0  0
   38.0330   38.9870   25.6300 C   0  0  0  0  0  0  0  0  0  0  0  0
   41.2910   37.6830   28.8370 C   0  0  0  0  0  0  0  0  0  0  0  0
  1 19  1  0
  1  8  1  0
  2  6  1  0
  4 13  1  0
  5 12  1  0
  5 18  1  0
  6 20  2  0
  7 16  1  0
  7  4  2  0
  8  3  1  0
  9  5  1  0
 10 13  1  0
 10  9  1  0
 10 21  1  0
 13 11  2  0
 14  8  2  0
 15 17  2  0
 15  6  1  0
 17  7  1  0
 20  4  1  0
 21  1  1  0
 21 12  1  0
M  END
$$$$

     RDKit          3D

 22 23  0  0  0  0  0  0  0  0999 V2000
   41.3610   34.6080   30.1630 N   0  0  0  0  0  0  0  0  0  0  0  0
   36.9510   37.9500   24.4580 C   0  0  0  0  0  0  0  0  0  0  0  0
   42.2330   35.7800   30.0320 C   0  0  0  0  0  0  0  0  0  0  0  0
   38.4350   38.3210   24.6220 C   0  0  0  0  0  0  0  0  0  0  0  0
   39.3310   37.1260   24.7550 C   0  0  0  0  0  0  0  0  0  0  0  0
   36.2850   40.3960   24.2100 C   0  0  0  0  0  0  0  0  0  0  0  0
   38.8790   35.9480   24.0050 O   0  0  0  0  0  0  0  0  0  0  0  0
   35.9470   38.9010   24.7650 C   0  0  0  0  0  0  0  0  0  0  0  0
   42.9770   37.5540   28.5850 O   0  0  0  0  0  0  0  0  0  0  0  0
   39.3880   35.9090   29.2650 C   0  0  0  0  0  0  0  0  0  0  0  0
   41.5050   39.0540   27.2060 C   0  0  0  0  0  0  0  0  0  0  0  0
   40.4050   36.4570   28.4310 N   0  0  0  0  0  0  0  0  0  0  0  0
   38.6860   36.0640   27.0290 O   0  0  0  0  0  0  0  0  0  0  0  0
   39.8960   34.7760   30.1090 C   0  0  0  0  0  0  0  0  0  0  0  0
   42.0830   36.8850   25.5990 C   0  0  0  0  0  0  0  0  0  0  0  0
   37.7540   40.7630   24.3750 C   0  0  0  0  0  0  0  0  0  0  0  0
   40.5200   37.1560   25.7190 C   0  0  0  0  0  0  0  0  0  0  0  0
   39.9950   36.7170   27.1100 C   0  0  0  0  0  0  0  0  0  0  0  0
   42.2040   38.5680   28.5390 C   0  0  0  0  0  0  0  0  0  0  0  0
   38.8160   39.6980   24.6300 C   0  0  0  0  0  0  0  0  0  0  0  0
   41.8050   39.1330   29.7440 N   0  0  0  0  0  0  0  0  0  0  0  0
   40.1410   38.1930   26.8060 C   0  0  0  0  0  0  0  0  0  0  0  0
  2  4  1  0
  2  8  1  0
  3  1  1  0
  4 20  2  0
  4  5  1  0
  5  7  1  0
  5 17  1  0
  6 16  1  0
  6  8  1  0
 10 14  1  0
 11 19  1  0
 12 10  1  0
 14  1  1  0
 16 20  1  0
 17 15  1  0
 17 22  1  0
 17 18  1  0
 18 13  1  0
 18 12  1  0
 19  9  2  0
 19 21  1  0
 22 18  1  0
 22 11  1  0
M  END
$$$$

     RDKit          3D

 12 11  0  0  0  0  0  0  0  0999 V2000
   39.5430   35.8530   25.2270 O   0  0  0  0  0  0  0  0  0  0  0  0
   41.1550   36.2920   29.9340 O   0  0  0  0  0  0  0  0  0  0  0  0
   42.0130   38.0990   28.3850 C   0  0  0  0  0  0  0  0  0  0  0  0
   40.9820   36.9820   26.6120 N   0  0  0  0  0  0  0  0  0  0  0  0
   40.7370   37.2250   27.8490 C   0  0  0  0  0  0  0  0  0  0  0  0
   41.3290   38.5110   29.4310 O   0  0  0  0  0  0  0  0  0  0  0  0
   39.6050   37.2400   25.6500 S   0  0  0  0  0  0  0  0  0  0  0  0
   39.8440   37.8070   24.2260 O   0  0  0  0  0  0  0  0  0  0  0  0
   42.2760   35.8770   29.1960 C   0  0  0  0  0  0  0  0  0  0  0  0
   42.9920   37.0430   28.5420 C   0  0  0  0  0  0  0  0  0  0  0  0
   38.4900   37.9240   26.5360 O   0  0  0  0  0  0  0  0  0  0  0  0
   43.4850   36.8810   27.1930 O   0  0  0  0  0  0  0  0  0  0  0  0
  1  7  1  0
  3 10  1  0
  3  6  1  0
  4  5  1  0
  5  3  1  0
  7 11  1  0
  7  4  1  0
  8  7  1  0
  9  2  1  0
 10 12  1  0
 10  9  1  0
M  END
$$$$

     RDKit          3D

 19 19  0  0  0  0  0  0  0  0999 V2000
   40.3450   38.6270   27.0380 C   0  0  0  0  0  0  0  0  0  0  0  0
   39.0820   39.8580   25.0890 O   0  0  0  0  0  0  0  0  0  0  0  0
   37.0820   38.5910   24.6160 O   0  0  0  0  0  0  0  0  0  0  0  0
   39.4150   35.6590   25.3260 O   0  0  0  0  0  0  0  0  0  0  0  0
   42.1760   37.5150   28.8820 C   0  0  0  0  0  0  0  0  0  0  0  0
   39.6490   37.2740   27.3260 C   0  0  0  0  0  0  0  0  0  0  0  0
   40.2260   39.0550   25.6200 C   0  0  0  0  0  0  0  0  0  0  0  0
   42.8510   36.4410   29.7570 C   0  0  0  0  0  0  0  0  0  0  0  0
   42.4290   36.4460   24.9450 O   0  0  0  0  0  0  0  0  0  0  0  0
   37.1740   41.0740   23.8340 O   0  0  0  0  0  0  0  0  0  0  0  0
   40.4580   35.8460   29.7950 C   0  0  0  0  0  0  0  0  0  0  0  0
   42.3800   37.2200   27.3130 N   0  0  0  0  0  0  0  0  0  0  0  0
   43.8730   37.1270   27.0730 N   0  0  0  0  0  0  0  0  0  0  0  0
   38.5990   39.4200   22.5740 O   0  0  0  0  0  0  0  0  0  0  0  0
   40.0590   36.4900   28.5420 O   0  0  0  0  0  0  0  0  0  0  0  0
   37.7600   39.7470   24.0600 P   0  0  0  0  0  0  0  0  0  0  0  0
   41.5950   36.7710   25.9760 C   0  0  0  0  0  0  0  0  0  0  0  0
   40.1740   36.5250   26.0340 C   0  0  0  0  0  0  0  0  0  0  0  0
   41.8140   35.3420   29.7260 N   0  0  0  0  0  0  0  0  0  0  0  0
  2  7  1  0
  5  8  1  0
  6  1  1  0
  6 15  1  0
  7  1  1  0
  9 17  2  0
 10 16  1  0
 12  5  1  0
 13 12  1  0
 14 16  2  0
 15 11  1  0
 16  3  1  0
 16  2  1  0
 17 18  1  0
 17 12  1  0
 18  4  1  0
 18  6  1  0
 19  8  1  0
 19 11  1  0
M  END
$$$$

     RDKit          3D

  6  5  0  0  0  0  0  0  0  0999 V2000
   41.0350   37.7540   27.8860 C   0  0  0  0  0  0  0  0  0  0  0  0
   39.6560   37.4900   27.8290 C   0  0  0  0  0  0  0  0  0  0  0  0
   41.6980   36.8150   29.8640 C   0  0  0  0  0  0  0  0  0  0  0  0
   41.6140   38.0630   29.2090 C   0  0  0  0  0  0  0  0  0  0  0  0
   39.4180   36.9360   26.1500 S   0  0  0  0  0  0  0  0  0  0  0  0
   40.9380   35.7530   29.2360 N   0  0  0  0  0  0  0  0  0  0  0  0
  1  4  1  0
  2  1  1  0
  4  3  1  0
  5  2  1  0
  6  3  1  0
M  END
$$$$

     RDKit          3D

 16 15  0  0  0  0  0  0  0  0999 V2000
   39.6810   40.2130   26.0080 O   0  0  0  0  0  0  0  0  0  0  0  0
   40.6000   35.7940   28.9090 C   0  0  0  0  0  0  0  0  0  0  0  0
   39.5560   38.9000   25.7450 C   0  0  0  0  0  0  0  0  0  0  0  0
   41.6080   39.5880   27.6450 O   0  0  0  0  0  0  0  0  0  0  0  0
   37.8910   37.7020   24.5820 O   0  0  0  0  0  0  0  0  0  0  0  0
   38.3560   35.7580   23.7840 O   0  0  0  0  0  0  0  0  0  0  0  0
   41.8370   37.3750   27.5870 C   0  0  0  0  0  0  0  0  0  0  0  0
   42.7720   36.6430   27.3060 O   0  0  0  0  0  0  0  0  0  0  0  0
   41.5570   36.9500   29.0470 C   0  0  0  0  0  0  0  0  0  0  0  0
   39.3780   36.0800   28.2440 O   0  0  0  0  0  0  0  0  0  0  0  0
   39.9640   37.6640   26.4330 C   0  0  0  0  0  0  0  0  0  0  0  0
   41.1580   38.0950   29.7460 O   0  0  0  0  0  0  0  0  0  0  0  0
   38.6620   36.7070   24.5420 C   0  0  0  0  0  0  0  0  0  0  0  0
   40.3960   35.0560   30.2670 C   0  0  0  0  0  0  0  0  0  0  0  0
   39.9340   36.5800   25.3880 C   0  0  0  0  0  0  0  0  0  0  0  0
   41.1130   38.3680   27.0690 C   0  0  0  0  0  0  0  0  0  0  0  0
  2  9  1  0
  2 14  1  0
  3  1  1  0
  3 11  1  0
  6 13  2  0
  7  9  1  0
  8  7  2  0
  9 12  1  0
 10  2  1  0
 11 15  1  0
 11 16  1  0
 13  5  1  0
 13 15  1  0
 16  7  1  0
 16  4  1  0
M  END
$$$$

     RDKit          3D

 14 15  0  0  0  0  0  0  0  0999 V2000
   39.6480   39.4150   25.6550 C   0  0  0  0  0  0  0  0  0  0  0  0
   39.6440   37.4790   27.0990 C   0  0  0  0  0  0  0  0  0  0  0  0
   41.2190   39.3550   25.3490 C   0  0  0  0  0  0  0  0  0  0  0  0
   39.9530   36.8440   25.9320 C   0  0  0  0  0  0  0  0  0  0  0  0
   39.1610   37.1880   24.7530 O   0  0  0  0  0  0  0  0  0  0  0  0
   39.7280   38.8710   26.9660 O   0  0  0  0  0  0  0  0  0  0  0  0
   40.4490   37.4820   29.2450 N   0  0  0  0  0  0  0  0  0  0  0  0
   41.9560   35.9980   26.9250 O   0  0  0  0  0  0  0  0  0  0  0  0
   40.6360   35.9710   29.0280 C   0  0  0  0  0  0  0  0  0  0  0  0
   40.3090   35.2400   30.3180 C   0  0  0  0  0  0  0  0  0  0  0  0
   41.9960   38.7220   25.9870 O   0  0  0  0  0  0  0  0  0  0  0  0
   38.8950   38.6150   24.7240 C   0  0  0  0  0  0  0  0  0  0  0  0
   41.1990   36.1400   25.7590 C   0  0  0  0  0  0  0  0  0  0  0  0
   39.6090   36.7510   28.3210 C   0  0  0  0  0  0  0  0  0  0  0  0
  1  3  1  0
  1  6  1  0
  2  6  1  0
  2 14  1  0
  3 11  2  0
  4 13  1  0
  4  2  1  0
  5  4  1  0
  9  7  1  0
  9 10  1  0
 12  5  1  0
 12  1  1  0
 13  8  1  0
 14  9  1  0
 14  7  1  0
M  END
$$$$

     RDKit          3D

 10  9  0  0  0  0  0  0  0  0999 V2000
   39.7030   34.9750   29.8720 C   0  0  0  0  0  0  0  0  0  0  0  0
   42.1780   34.7670   29.7190 N   0  0  0  0  0  0  0  0  0  0  0  0
   42.5820   38.0010   26.8440 N   0  0  0  0  0  0  0  0  0  0  0  0
   41.0860   36.9320   28.9160 C   0  0  0  0  0  0  0  0  0  0  0  0
   41.8560   39.3140   29.6280 N   0  0  0  0  0  0  0  0  0  0  0  0
   43.2840   37.9020   28.1060 C   0  0  0  0  0  0  0  0  0  0  0  0
   43.4040   37.7690   25.6660 C   0  0  0  0  0  0  0  0  0  0  0  0
   42.1960   37.9240   29.2720 C   0  0  0  0  0  0  0  0  0  0  0  0
   44.3800   37.0740   28.5860 N   0  0  0  0  0  0  0  0  0  0  0  0
   41.0800   35.6690   29.8260 C   0  0  0  0  0  0  0  0  0  0  0  0
  2 10  1  0
  3  6  1  0
  4  8  1  0
  4 10  1  0
  6  9  2  0
  6  8  1  0
  7  3  1  0
  8  5  1  0
 10  1  1  0
M  END
$$$$

     RDKit          3D

 11 11  0  0  0  0  0  0  0  0999 V2000
   42.1240   37.2170   25.9020 O   0  0  0  0  0  0  0  0  0  0  0  0
   39.2970   36.5290   28.1370 S   0  0  0  0  0  0  0  0  0  0  0  0
   43.3860   36.8200   28.1610 C   0  0  0  0  0  0  0  0  0  0  0  0
   42.6670   35.7690   28.9170 O   0  0  0  0  0  0  0  0  0  0  0  0
   41.4510   36.0920   29.5140 C   0  0  0  0  0  0  0  0  0  0  0  0
   40.7130   37.0740   28.9880 C   0  0  0  0  0  0  0  0  0  0  0  0
   44.4930   37.1320   28.6910 O   0  0  0  0  0  0  0  0  0  0  0  0
   42.5980   37.7740   27.1870 C   0  0  0  0  0  0  0  0  0  0  0  0
   40.9440   35.4140   30.5150 N   0  0  0  0  0  0  0  0  0  0  0  0
   41.1090   38.3830   29.1650 N   0  0  0  0  0  0  0  0  0  0  0  0
   41.8000   38.9200   27.9300 C   0  0  0  0  0  0  0  0  0  0  0  0
  2  6  2  0
  3  7  2  0
  3  4  1  0
  4  5  1  0
  5  9  2  0
  6 10  1  0
  6  5  1  0
  8  1  1  0
  8 11  1  0
  8  3  1  0
 11 10  1  0
M  END
$$$$

     RDKit          3D

 20 20  0  0  0  0  0  0  0  0999 V2000
   39.8190   37.4650   26.4480 C   0  0  0  0  0  0  0  0  0  0  0  0
   42.8480   36.7750   26.1310 C   0  0  0  0  0  0  0  0  0  0  0  0
   40.8560   37.8110   28.3780 C   0  0  0  0  0  0  0  0  0  0  0  0
   38.2690   39.1300   25.6530 C   0  0  0  0  0  0  0  0  0  0  0  0
   40.0010   36.6230   28.8250 C   0  0  0  0  0  0  0  0  0  0  0  0
   40.4930   36.3750   25.8170 N   0  0  0  0  0  0  0  0  0  0  0  0
   40.9740   36.2890   30.0170 N   0  0  0  0  0  0  0  0  0  0  0  0
   41.6950   36.8410   25.2960 C   0  0  0  0  0  0  0  0  0  0  0  0
   40.7790   38.4990   27.0590 C   0  0  0  0  0  0  0  0  0  0  0  0
   37.3840   39.1900   24.6640 N   0  0  0  0  0  0  0  0  0  0  0  0
   41.7200   37.0380   24.1500 O   0  0  0  0  0  0  0  0  0  0  0  0
   36.4540   37.8760   22.7700 C   0  0  0  0  0  0  0  0  0  0  0  0
   40.2500   34.9540   30.2520 C   0  0  0  0  0  0  0  0  0  0  0  0
   36.6670   40.3690   24.3650 N   0  0  0  0  0  0  0  0  0  0  0  0
   38.8080   37.8400   25.6270 C   0  0  0  0  0  0  0  0  0  0  0  0
   42.0100   38.2520   29.2980 C   0  0  0  0  0  0  0  0  0  0  0  0
   42.3060   35.6000   30.0230 C   0  0  0  0  0  0  0  0  0  0  0  0
   38.2510   37.1290   24.4920 C   0  0  0  0  0  0  0  0  0  0  0  0
   37.3570   38.0280   23.9410 C   0  0  0  0  0  0  0  0  0  0  0  0
   43.6300   36.7090   26.9260 O   0  0  0  0  0  0  0  0  0  0  0  0
  1  9  1  0
  2 20  2  0
  3  5  1  0
  3 16  1  0
  5  7  1  0
  6  1  1  0
  7 17  1  0
  7 13  1  0
  8  6  1  0
  8  2  2  0
  9  3  1  0
 10  4  1  0
 11  8  2  0
 12 19  1  0
 14 10  1  0
 15  4  2  0
 15  1  1  0
 18 15  1  0
 19 18  2  0
 19 10  1  0
M  END
$$$$

     RDKit          3D

 18 19  0  0  0  0  0  0  0  0999 V2000
   39.9390   34.9090   30.4440 N   0  0  0  0  0  0  0  0  0  0  0  0
   39.2680   35.4490   28.3810 N   0  0  0  0  0  0  0  0  0  0  0  0
   41.4040   36.2720   29.1770 C   0  0  0  0  0  0  0  0  0  0  0  0
   39.2770   39.9700   26.2480 O   0  0  0  0  0  0  0  0  0  0  0  0
   40.3820   37.8840   25.9150 C   0  0  0  0  0  0  0  0  0  0  0  0
   42.6790   37.9040   27.8440 C   0  0  0  0  0  0  0  0  0  0  0  0
   41.5400   37.0370   28.0530 C   0  0  0  0  0  0  0  0  0  0  0  0
   38.9220   39.4360   25.2920 C   0  0  0  0  0  0  0  0  0  0  0  0
   37.8530   40.1170   24.4930 C   0  0  0  0  0  0  0  0  0  0  0  0
   39.0220   35.7550   24.5410 O   0  0  0  0  0  0  0  0  0  0  0  0
   40.1650   35.5470   29.3970 C   0  0  0  0  0  0  0  0  0  0  0  0
   42.3970   36.0800   30.0370 N   0  0  0  0  0  0  0  0  0  0  0  0
   37.8960   39.5220   23.2100 O   0  0  0  0  0  0  0  0  0  0  0  0
   40.5910   36.9680   27.1190 N   0  0  0  0  0  0  0  0  0  0  0  0
   39.0490   38.0840   25.3950 C   0  0  0  0  0  0  0  0  0  0  0  0
   41.5380   38.0770   25.2980 O   0  0  0  0  0  0  0  0  0  0  0  0
   39.4500   37.0560   24.6090 C   0  0  0  0  0  0  0  0  0  0  0  0
   39.3890   36.3660   27.4460 C   0  0  0  0  0  0  0  0  0  0  0  0
  2 11  1  0
  3 11  1  0
  3 12  1  0
  5 16  1  0
  5 14  1  0
  6  7  1  0
  7  3  2  0
  8  4  2  0
  9  8  1  0
 11  1  2  0
 13  9  1  0
 14 18  1  0
 14  7  1  0
 15  8  1  0
 15  5  1  0
 17 10  1  0
 17 15  1  0
 17  5  1  0
 18  2  1  0
M  END
$$$$

     RDKit          3D

  9  8  0  0  0  0  0  0  0  0999 V2000
   42.1140   38.5140   24.8200 O   0  0  0  0  0  0  0  0  0  0  0  0
   39.2650   36.9120   28.7490 C   0  0  0  0  0  0  0  0  0  0  0  0
   41.0840   38.2540   25.8110 C   0  0  0  0  0  0  0  0  0  0  0  0
   41.4540   38.7940   27.1640 C   0  0  0  0  0  0  0  0  0  0  0  0
   41.4190   36.4590   27.9950 C   0  0  0  0  0  0  0  0  0  0  0  0
   40.0600   36.7620   27.4950 C   0  0  0  0  0  0  0  0  0  0  0  0
   42.2150   38.2370   29.4210 O   0  0  0  0  0  0  0  0  0  0  0  0
   42.1850   37.7830   28.0560 C   0  0  0  0  0  0  0  0  0  0  0  0
   41.4490   35.7220   29.3100 C   0  0  0  0  0  0  0  0  0  0  0  0
  1  3  1  0
  3  4  1  0
  4  8  1  0
  5  8  1  0
  5  9  1  0
  6  5  1  0
  6  2  1  0
  8  7  1  0
M  END
$$$$

     RDKit          3D

 16 17  0  0  0  0  0  0  0  0999 V2000
   42.6970   35.8440   29.4040 C   0  0  0  0  0  0  0  0  0  0  0  0
   41.2020   37.2720   25.2230 C   0  0  0  0  0  0  0  0  0  0  0  0
   40.8440   37.7650   28.7150 C   0  0  0  0  0  0  0  0  0  0  0  0
   42.8410   36.8100   28.2520 C   0  0  0  0  0  0  0  0  0  0  0  0
   37.8230   39.4180   24.4410 C   0  0  0  0  0  0  0  0  0  0  0  0
   40.6860   38.9870   28.6910 O   0  0  0  0  0  0  0  0  0  0  0  0
   41.1790   35.5520   29.6020 C   0  0  0  0  0  0  0  0  0  0  0  0
   43.8540   37.4010   27.8160 O   0  0  0  0  0  0  0  0  0  0  0  0
   39.2550   36.6220   26.6000 O   0  0  0  0  0  0  0  0  0  0  0  0
   40.6720   36.9230   26.5680 C   0  0  0  0  0  0  0  0  0  0  0  0
   38.4080   38.7000   25.6780 C   0  0  0  0  0  0  0  0  0  0  0  0
   40.6330   36.9020   29.7280 N   0  0  0  0  0  0  0  0  0  0  0  0
   38.7890   37.2140   25.4200 C   0  0  0  0  0  0  0  0  0  0  0  0
   39.9310   37.0800   24.3620 C   0  0  0  0  0  0  0  0  0  0  0  0
   41.4660   36.9810   27.6080 C   0  0  0  0  0  0  0  0  0  0  0  0
   36.3600   39.8900   24.6790 C   0  0  0  0  0  0  0  0  0  0  0  0
  1  7  1  0
  3 12  1  0
  4  1  1  0
  5 16  1  0
  5 11  1  0
  6  3  2  0
  7 12  1  0
  8  4  2  0
 10  2  1  0
 10  9  1  0
 10 15  1  0
 13 11  1  0
 13  9  1  0
 14  2  1  0
 14 13  1  0
 15  4  1  0
 15  3  1  0
M  END
$$$$
