
     RDKit          3D

  8  8  0  0  0  0  0  0  0  0999 V2000
   41.5880   35.1240   27.8820 N   0  0  0  0  0  0  0  0  0  0  0  0
   41.6930   33.8450   28.5220 C   0  0  0  0  0  0  0  0  0  0  0  0
   39.8010   36.4710   25.9750 C   0  0  0  0  0  0  0  0  0  0  0  0
   40.5760   37.0810   26.7060 O   0  0  0  0  0  0  0  0  0  0  0  0
   40.0320   34.9240   25.9160 C   0  0  0  0  0  0  0  0  0  0  0  0
   41.2080   34.3890   26.5100 C   0  0  0  0  0  0  0  0  0  0  0  0
   41.2920   33.0910   27.3180 C   0  0  0  0  0  0  0  0  0  0  0  0
   39.0210   34.0970   25.1880 O   0  0  0  0  0  0  0  0  0  0  0  0
  1  2  1  0
  3  4  1  0
  5  8  1  0
  5  3  1  0
  6  5  1  0
  6  7  1  0
  6  1  1  0
  7  2  1  0
M  END
$$$$

     RDKit          3D

  7  7  0  0  0  0  0  0  0  0999 V2000
   40.3050   33.1810   28.0000 C   0  0  0  0  0  0  0  0  0  0  0  0
   40.1650   36.6010   26.6290 N   0  0  0  0  0  0  0  0  0  0  0  0
   40.6540   35.6590   27.5020 N   0  0  0  0  0  0  0  0  0  0  0  0
   42.3140   34.0260   26.7340 C   0  0  0  0  0  0  0  0  0  0  0  0
   40.4220   34.7500   25.3680 N   0  0  0  0  0  0  0  0  0  0  0  0
   40.1540   36.1410   25.4000 C   0  0  0  0  0  0  0  0  0  0  0  0
   40.8440   34.3700   26.8610 C   0  0  0  0  0  0  0  0  0  0  0  0
  2  3  1  0
  4  7  1  0
  5  6  1  0
  5  7  1  0
  6  2  2  0
  7  3  1  0
  7  1  1  0
M  END
$$$$

     RDKit          3D

  5  4  0  0  0  0  0  0  0  0999 V2000
   42.5270   33.5820   27.1740 N   0  0  0  0  0  0  0  0  0  0  0  0
   40.0850   32.9440   28.0320 O   0  0  0  0  0  0  0  0  0  0  0  0
   39.4270   35.0230   26.9790 O   0  0  0  0  0  0  0  0  0  0  0  0
   40.2620   34.1770   27.2860 C   0  0  0  0  0  0  0  0  0  0  0  0
   41.3860   34.3320   26.9330 C   0  0  0  0  0  0  0  0  0  0  0  0
  3  4  2  0
  4  2  1  0
  5  1  1  0
  5  4  1  0
M  END
$$$$

     RDKit          3D

 11 11  0  0  0  0  0  0  0  0999 V2000
   41.0280   34.7030   25.4070 C   0  0  0  0  0  0  0  0  0  0  0  0
   43.2740   34.7360   24.5650 C   0  0  0  0  0  0  0  0  0  0  0  0
   39.4490   36.3710   26.0050 C   0  0  0  0  0  0  0  0  0  0  0  0
   41.8570   34.3630   24.4310 N   0  0  0  0  0  0  0  0  0  0  0  0
   40.2560   34.9220   27.6340 N   0  0  0  0  0  0  0  0  0  0  0  0
   40.0970   35.6760   25.0110 C   0  0  0  0  0  0  0  0  0  0  0  0
   43.6760   35.9110   24.5250 O   0  0  0  0  0  0  0  0  0  0  0  0
   39.5860   36.0260   27.3180 C   0  0  0  0  0  0  0  0  0  0  0  0
   41.3500   33.0200   27.4970 C   0  0  0  0  0  0  0  0  0  0  0  0
   40.9410   34.2320   26.7460 C   0  0  0  0  0  0  0  0  0  0  0  0
   43.9260   33.7390   24.8490 N   0  0  0  0  0  0  0  0  0  0  0  0
  1 10  1  0
  2 11  1  0
  3  8  2  0
  4  2  1  0
  4  1  1  0
  6  1  2  0
  6  3  1  0
  7  2  2  0
  8  5  1  0
 10  9  1  0
 10  5  2  0
M  END
$$$$

     RDKit          3D

 21 22  0  0  0  0  0  0  0  0999 V2000
   45.2770   35.6230   26.0390 C   0  0  0  0  0  0  0  0  0  0  0  0
   44.5060   36.9930   32.8190 O   0  0  0  0  0  0  0  0  0  0  0  0
   42.5300   36.3240   30.2840 C   0  0  0  0  0  0  0  0  0  0  0  0
   45.3470   33.3650   24.3520 Br  0  0  0  0  0  0  0  0  0  0  0  0
   43.4970   36.5730   29.2310 N   0  0  0  0  0  0  0  0  0  0  0  0
   43.1890   38.7700   33.0570 F   0  0  0  0  0  0  0  0  0  0  0  0
   41.0790   34.1180   28.1350 C   0  0  0  0  0  0  0  0  0  0  0  0
   40.2590   34.5070   27.2430 C   0  0  0  0  0  0  0  0  0  0  0  0
   40.4630   35.1460   30.9670 C   0  0  0  0  0  0  0  0  0  0  0  0
   43.6580   35.8450   27.9720 C   0  0  0  0  0  0  0  0  0  0  0  0
   41.5490   35.3780   30.1190 C   0  0  0  0  0  0  0  0  0  0  0  0
   40.8510   32.9130   28.3210 C   0  0  0  0  0  0  0  0  0  0  0  0
   41.7550   34.7080   28.9340 N   0  0  0  0  0  0  0  0  0  0  0  0
   43.8430   33.8160   26.6270 C   0  0  0  0  0  0  0  0  0  0  0  0
   40.2450   36.0160   32.0290 C   0  0  0  0  0  0  0  0  0  0  0  0
   42.4220   37.0610   31.5720 C   0  0  0  0  0  0  0  0  0  0  0  0
   41.1810   36.9840   32.3050 C   0  0  0  0  0  0  0  0  0  0  0  0
   44.7600   36.3320   27.0890 C   0  0  0  0  0  0  0  0  0  0  0  0
   43.3110   34.6200   27.6320 C   0  0  0  0  0  0  0  0  0  0  0  0
   44.7830   34.3400   25.7950 C   0  0  0  0  0  0  0  0  0  0  0  0
   43.4880   37.6110   32.5010 C   0  0  0  0  0  0  0  0  0  0  0  0
  1 18  1  0
  3 16  1  0
  4 20  1  0
  5  3  1  0
  7 12  2  0
  7 13  1  0
  8  7  1  0
  9 15  2  0
 10  5  1  0
 11  3  2  0
 11  9  1  0
 13 11  1  0
 14 19  2  0
 15 17  1  0
 16 17  2  0
 16 21  1  0
 18 10  2  0
 19 10  1  0
 20  1  2  0
 20 14  1  0
 21  2  2  0
 21  6  1  0
M  END
$$$$

     RDKit          3D

 17 19  0  0  0  0  0  0  0  0999 V2000
   38.2400   35.4050   23.5340 C   0  0  0  0  0  0  0  0  0  0  0  0
   40.9470   35.0800   25.5090 C   0  0  0  0  0  0  0  0  0  0  0  0
   36.9180   34.9840   23.3750 C   0  0  0  0  0  0  0  0  0  0  0  0
   43.1130   34.1450   26.9410 S   0  0  0  0  0  0  0  0  0  0  0  0
   36.1960   37.2060   23.0780 C   0  0  0  0  0  0  0  0  0  0  0  0
   37.5250   37.6430   23.1090 C   0  0  0  0  0  0  0  0  0  0  0  0
   41.3330   32.4380   28.1170 C   0  0  0  0  0  0  0  0  0  0  0  0
   42.2570   34.7750   25.5110 C   0  0  0  0  0  0  0  0  0  0  0  0
   40.7400   34.8950   28.0670 C   0  0  0  0  0  0  0  0  0  0  0  0
   34.7150   38.1760   23.0540 Cl  0  0  0  0  0  0  0  0  0  0  0  0
   41.6600   33.8090   27.7800 N   0  0  0  0  0  0  0  0  0  0  0  0
   40.2680   36.6690   23.1340 S   0  0  0  0  0  0  0  0  0  0  0  0
   40.0500   35.2850   26.7570 C   0  0  0  0  0  0  0  0  0  0  0  0
   38.5040   36.6830   23.2810 C   0  0  0  0  0  0  0  0  0  0  0  0
   39.2470   34.4730   24.0660 N   0  0  0  0  0  0  0  0  0  0  0  0
   40.5030   35.1100   24.0480 C   0  0  0  0  0  0  0  0  0  0  0  0
   35.8870   35.8730   23.1390 C   0  0  0  0  0  0  0  0  0  0  0  0
  1 15  1  0
  2  8  1  0
  2 13  1  0
  3  1  1  0
  4 11  1  0
  5  6  2  0
  5 17  1  0
  6 14  1  0
  8  4  1  0
 10  5  1  0
 11  9  1  0
 11  7  1  0
 12 14  1  0
 13  9  1  0
 14  1  2  0
 16 12  1  0
 16 15  1  0
 16  2  1  0
 17  3  2  0
M  END
$$$$

     RDKit          3D

 13 14  0  0  0  0  0  0  0  0999 V2000
   41.1630   35.3160   24.0190 C   0  0  0  0  0  0  0  0  0  0  0  0
   42.2020   34.6210   24.8710 N   0  0  0  0  0  0  0  0  0  0  0  0
   42.6850   33.4750   24.0430 C   0  0  0  0  0  0  0  0  0  0  0  0
   40.6800   37.3000   25.6280 O   0  0  0  0  0  0  0  0  0  0  0  0
   40.3840   34.4160   26.6900 C   0  0  0  0  0  0  0  0  0  0  0  0
   41.9180   34.2120   26.3440 C   0  0  0  0  0  0  0  0  0  0  0  0
   42.9860   36.9580   24.8880 C   0  0  0  0  0  0  0  0  0  0  0  0
   38.1400   36.1870   26.8220 S   0  0  0  0  0  0  0  0  0  0  0  0
   43.3460   35.5550   25.0070 C   0  0  0  0  0  0  0  0  0  0  0  0
   40.1820   36.1560   24.8720 C   0  0  0  0  0  0  0  0  0  0  0  0
   39.3580   35.2910   25.7800 C   0  0  0  0  0  0  0  0  0  0  0  0
   43.1940   36.4350   26.1010 O   0  0  0  0  0  0  0  0  0  0  0  0
   37.8050   35.0380   28.1680 C   0  0  0  0  0  0  0  0  0  0  0  0
  1  2  1  0
  1 10  1  0
  2  3  1  0
  2  9  1  0
  2  6  1  0
  6  5  1  0
  7 12  1  0
  8 13  1  0
  9  7  1  0
  9 12  1  0
 10  4  1  0
 10 11  1  0
 11  5  1  0
 11  8  1  0
M  END
$$$$

     RDKit          3D

 14 15  0  0  0  0  0  0  0  0999 V2000
   40.3290   31.7930   27.6160 O   0  0  0  0  0  0  0  0  0  0  0  0
   41.7140   37.1950   23.5270 C   0  0  0  0  0  0  0  0  0  0  0  0
   40.9960   34.9230   24.4150 C   0  0  0  0  0  0  0  0  0  0  0  0
   40.7740   37.2100   24.7290 O   0  0  0  0  0  0  0  0  0  0  0  0
   42.3040   34.8490   25.2470 O   0  0  0  0  0  0  0  0  0  0  0  0
   41.3590   32.7140   27.1270 C   0  0  0  0  0  0  0  0  0  0  0  0
   41.2470   36.2550   22.6020 O   0  0  0  0  0  0  0  0  0  0  0  0
   41.6460   34.8720   22.9900 C   0  0  0  0  0  0  0  0  0  0  0  0
   40.7550   34.0710   26.8980 C   0  0  0  0  0  0  0  0  0  0  0  0
   39.9580   34.4680   28.1380 C   0  0  0  0  0  0  0  0  0  0  0  0
   41.8500   35.0880   26.5960 C   0  0  0  0  0  0  0  0  0  0  0  0
   41.1970   36.3430   26.5790 C   0  0  0  0  0  0  0  0  0  0  0  0
   40.5480   37.1740   27.0330 O   0  0  0  0  0  0  0  0  0  0  0  0
   40.2380   36.0190   25.2110 C   0  0  0  0  0  0  0  0  0  0  0  0
  2  4  1  0
  3  8  1  0
  3 14  1  0
  3  5  1  0
  5 11  1  0
  6  1  1  0
  7  8  1  0
  7  2  1  0
  9  6  1  0
  9 10  1  0
 11  9  1  0
 12 11  1  0
 12 13  2  0
 14  4  1  0
 14 12  1  0
M  END
$$$$

     RDKit          3D

  9  9  0  0  0  0  0  0  0  0999 V2000
   40.4710   33.6020   27.0320 C   0  0  0  0  0  0  0  0  0  0  0  0
   40.6430   34.7090   24.3740 C   0  0  0  0  0  0  0  0  0  0  0  0
   40.0900   36.6880   26.9770 O   0  0  0  0  0  0  0  0  0  0  0  0
   42.1480   34.5070   24.1540 C   0  0  0  0  0  0  0  0  0  0  0  0
   40.2500   34.5970   25.9480 C   0  0  0  0  0  0  0  0  0  0  0  0
   39.9770   34.0180   28.3800 N   0  0  0  0  0  0  0  0  0  0  0  0
   40.1010   35.6920   26.3980 C   0  0  0  0  0  0  0  0  0  0  0  0
   42.7580   33.5710   25.0350 O   0  0  0  0  0  0  0  0  0  0  0  0
   40.3640   32.6760   28.4990 C   0  0  0  0  0  0  0  0  0  0  0  0
  1  5  1  0
  1  6  1  0
  1  9  1  0
  2  5  1  0
  4  2  1  0
  4  8  1  0
  5  7  2  0
  6  9  1  0
  7  3  2  0
M  END
$$$$

     RDKit          3D

  4  3  0  0  0  0  0  0  0  0999 V2000
   39.5540   36.5810   26.7380 N   0  0  0  0  0  0  0  0  0  0  0  0
   40.2830   35.5390   26.4630 C   0  0  0  0  0  0  0  0  0  0  0  0
   40.3660   34.2270   26.5770 N   0  0  0  0  0  0  0  0  0  0  0  0
   40.4150   33.3750   27.7170 N   0  0  0  0  0  0  0  0  0  0  0  0
  2  3  1  0
  2  1  2  0
  3  4  1  0
M  END
$$$$

     RDKit          3D

 10 11  0  0  0  0  0  0  0  0999 V2000
   42.3830   35.2210   23.0760 N   0  0  0  0  0  0  0  0  0  0  0  0
   40.3110   34.0230   29.1260 N   0  0  0  0  0  0  0  0  0  0  0  0
   41.3950   34.0310   25.4620 C   0  0  0  0  0  0  0  0  0  0  0  0
   40.7000   36.0270   27.0460 C   0  0  0  0  0  0  0  0  0  0  0  0
   42.0300   34.9970   24.4400 C   0  0  0  0  0  0  0  0  0  0  0  0
   42.5440   33.8760   23.3760 C   0  0  0  0  0  0  0  0  0  0  0  0
   40.8260   34.5380   26.7000 C   0  0  0  0  0  0  0  0  0  0  0  0
   40.2230   33.5560   27.7160 C   0  0  0  0  0  0  0  0  0  0  0  0
   41.9560   36.3330   24.9500 C   0  0  0  0  0  0  0  0  0  0  0  0
   41.4070   36.9150   26.0720 N   0  0  0  0  0  0  0  0  0  0  0  0
  1  6  1  0
  1  5  1  0
  3  7  2  0
  5  6  1  0
  5  9  1  0
  5  3  1  0
  7  4  1  0
  7  8  1  0
  8  2  1  0
  9 10  2  0
 10  4  1  0
M  END
$$$$

     RDKit          3D

  9  8  0  0  0  0  0  0  0  0999 V2000
   43.1950   35.0340   24.9120 S   0  0  0  0  0  0  0  0  0  0  0  0
   40.8170   33.7190   27.4920 C   0  0  0  0  0  0  0  0  0  0  0  0
   41.7650   33.1720   26.6960 N   0  0  0  0  0  0  0  0  0  0  0  0
   40.1600   32.8850   28.5420 C   0  0  0  0  0  0  0  0  0  0  0  0
   40.7550   38.1520   27.4570 N   0  0  0  0  0  0  0  0  0  0  0  0
   41.4500   35.3440   25.0060 C   0  0  0  0  0  0  0  0  0  0  0  0
   41.0870   37.4260   26.3590 C   0  0  0  0  0  0  0  0  0  0  0  0
   40.4570   35.1800   27.4960 C   0  0  0  0  0  0  0  0  0  0  0  0
   40.9290   35.9610   26.2830 C   0  0  0  0  0  0  0  0  0  0  0  0
  1  6  1  0
  2  8  1  0
  2  4  1  0
  3  2  1  0
  6  9  1  0
  7  5  1  0
  9  7  2  3
  9  8  1  0
M  END
$$$$

     RDKit          3D

 14 14  0  0  0  0  0  0  0  0999 V2000
   37.8360   34.1490   24.0390 O   0  0  0  0  0  0  0  0  0  0  0  0
   36.1580   35.9090   22.2550 C   0  0  0  0  0  0  0  0  0  0  0  0
   37.5530   36.6530   22.9410 S   0  0  0  0  0  0  0  0  0  0  0  0
   40.2860   33.2960   27.8320 C   0  0  0  0  0  0  0  0  0  0  0  0
   39.3750   36.4910   24.4360 N   0  0  0  0  0  0  0  0  0  0  0  0
   36.3100   34.4090   21.8580 C   0  0  0  0  0  0  0  0  0  0  0  0
   42.2660   36.6260   25.6470 C   0  0  0  0  0  0  0  0  0  0  0  0
   40.2070   35.5860   26.3550 N   0  0  0  0  0  0  0  0  0  0  0  0
   41.6920   33.5680   27.3010 C   0  0  0  0  0  0  0  0  0  0  0  0
   39.3420   35.4340   25.1180 C   0  0  0  0  0  0  0  0  0  0  0  0
   42.2020   34.9970   27.5350 C   0  0  0  0  0  0  0  0  0  0  0  0
   38.2710   35.5310   24.0750 C   0  0  0  0  0  0  0  0  0  0  0  0
   41.5120   35.7620   26.4610 C   0  0  0  0  0  0  0  0  0  0  0  0
   35.0320   34.2600   21.0550 C   0  0  0  0  0  0  0  0  0  0  0  0
  2  3  1  0
  3 12  1  0
  5 10  1  0
  6  2  1  0
  8 13  1  0
  9 11  1  0
  9  4  1  0
 10  8  1  0
 12  1  1  0
 12  5  1  0
 12 10  1  0
 13  7  1  0
 13 11  1  0
 14  6  1  0
M  END
$$$$

     RDKit          3D

 13 13  0  0  0  0  0  0  0  0999 V2000
   41.4030   34.8880   25.3370 C   0  0  0  0  0  0  0  0  0  0  0  0
   43.3820   36.7990   25.2670 C   0  0  0  0  0  0  0  0  0  0  0  0
   42.6270   36.9770   22.4830 O   0  0  0  0  0  0  0  0  0  0  0  0
   42.6220   36.6060   23.9240 C   0  0  0  0  0  0  0  0  0  0  0  0
   42.7900   34.3770   25.1510 C   0  0  0  0  0  0  0  0  0  0  0  0
   40.5970   34.1740   27.5220 N   0  0  0  0  0  0  0  0  0  0  0  0
   39.9880   35.6290   23.7020 O   0  0  0  0  0  0  0  0  0  0  0  0
   39.5020   34.1410   28.4690 C   0  0  0  0  0  0  0  0  0  0  0  0
   40.8130   35.2320   26.7350 C   0  0  0  0  0  0  0  0  0  0  0  0
   41.4120   33.0050   27.5290 N   0  0  0  0  0  0  0  0  0  0  0  0
   41.2150   36.0420   24.3590 C   0  0  0  0  0  0  0  0  0  0  0  0
   43.8360   35.4020   25.6280 C   0  0  0  0  0  0  0  0  0  0  0  0
   40.5000   36.4030   27.0490 O   0  0  0  0  0  0  0  0  0  0  0  0
  1  9  1  0
  2 12  1  0
  4  3  1  0
  4 11  1  0
  4  2  1  0
  5  1  1  0
  5 12  1  0
  6 10  1  0
  6  8  1  0
  9 13  2  0
  9  6  1  0
 11  7  1  0
 11  1  1  0
M  END
$$$$

     RDKit          3D

 24 26  0  0  0  0  0  0  0  0999 V2000
   33.0530   36.3610   27.8390 O   0  0  0  0  0  0  0  0  0  0  0  0
   40.5010   33.3870   28.3190 C   0  0  0  0  0  0  0  0  0  0  0  0
   38.2120   34.4780   26.3030 C   0  0  0  0  0  0  0  0  0  0  0  0
   33.8170   36.3020   25.5770 C   0  0  0  0  0  0  0  0  0  0  0  0
   35.1620   35.3070   22.2050 C   0  0  0  0  0  0  0  0  0  0  0  0
   34.9040   36.2040   24.6980 C   0  0  0  0  0  0  0  0  0  0  0  0
   38.8170   36.4870   27.4940 C   0  0  0  0  0  0  0  0  0  0  0  0
   36.0660   34.4900   22.7350 O   0  0  0  0  0  0  0  0  0  0  0  0
   37.7000   35.7160   26.7850 C   0  0  0  0  0  0  0  0  0  0  0  0
   39.4560   34.0850   27.3640 C   0  0  0  0  0  0  0  0  0  0  0  0
   42.1930   35.3110   28.0220 N   0  0  0  0  0  0  0  0  0  0  0  0
   34.0470   36.2670   27.0000 C   0  0  0  0  0  0  0  0  0  0  0  0
   41.8970   33.8200   27.7870 C   0  0  0  0  0  0  0  0  0  0  0  0
   32.5430   36.5200   25.2030 O   0  0  0  0  0  0  0  0  0  0  0  0
   40.0070   35.6170   27.2920 N   0  0  0  0  0  0  0  0  0  0  0  0
   36.3680   35.9320   26.5350 C   0  0  0  0  0  0  0  0  0  0  0  0
   35.3780   36.2300   27.4900 C   0  0  0  0  0  0  0  0  0  0  0  0
   37.1300   35.5690   24.3050 O   0  0  0  0  0  0  0  0  0  0  0  0
   34.7940   36.5390   23.1540 C   0  0  0  0  0  0  0  0  0  0  0  0
   42.3890   38.0040   28.1170 O   0  0  0  0  0  0  0  0  0  0  0  0
   41.2950   36.2150   27.2520 C   0  0  0  0  0  0  0  0  0  0  0  0
   36.1250   35.8550   25.1210 C   0  0  0  0  0  0  0  0  0  0  0  0
   40.1330   38.1180   28.2120 O   0  0  0  0  0  0  0  0  0  0  0  0
   41.2120   37.5570   27.8440 C   0  0  0  0  0  0  0  0  0  0  0  0
  3  9  1  0
  4 12  1  0
  5  8  1  0
  5 19  1  0
  6 22  1  0
  6  4  2  0
  9 16  1  0
  9  7  1  0
 10  3  1  0
 10  2  1  0
 12 17  2  0
 12  1  1  0
 13 11  1  0
 13  2  1  0
 14  4  1  0
 15 10  1  0
 15  7  1  0
 16 17  1  0
 18 22  1  0
 19  6  1  0
 21 15  1  0
 21 24  1  0
 21 11  1  0
 22 16  2  0
 24 20  2  0
 24 23  1  0
M  END
$$$$

     RDKit          3D

 22 22  0  0  0  0  0  0  0  0999 V2000
   40.9390   34.9030   24.6740 O   0  0  0  0  0  0  0  0  0  0  0  0
   37.4860   33.7200   23.2360 O   0  0  0  0  0  0  0  0  0  0  0  0
   37.4400   34.9070   23.5260 C   0  0  0  0  0  0  0  0  0  0  0  0
   33.7180   37.5040   23.2680 C   0  0  0  0  0  0  0  0  0  0  0  0
   40.0420   33.9340   28.1590 C   0  0  0  0  0  0  0  0  0  0  0  0
   38.5550   35.6580   24.2090 C   0  0  0  0  0  0  0  0  0  0  0  0
   42.8730   34.0070   25.9910 C   0  0  0  0  0  0  0  0  0  0  0  0
   36.3320   35.7170   23.4050 N   0  0  0  0  0  0  0  0  0  0  0  0
   43.6500   34.8030   25.0810 N   0  0  0  0  0  0  0  0  0  0  0  0
   39.7390   36.3350   26.6020 C   0  0  0  0  0  0  0  0  0  0  0  0
   38.9870   36.6880   23.1640 C   0  0  0  0  0  0  0  0  0  0  0  0
   43.0880   36.2950   27.3820 O   0  0  0  0  0  0  0  0  0  0  0  0
   39.7050   34.9960   25.5340 S   0  0  0  0  0  0  0  0  0  0  0  0
   42.7800   34.7940   27.5720 P   0  0  0  0  0  0  0  0  0  0  0  0
   37.7300   37.5680   23.0030 C   0  0  0  0  0  0  0  0  0  0  0  0
   33.2500   36.8060   24.5320 C   0  0  0  0  0  0  0  0  0  0  0  0
   35.1670   38.0210   23.4610 C   0  0  0  0  0  0  0  0  0  0  0  0
   36.3740   37.0350   23.3730 C   0  0  0  0  0  0  0  0  0  0  0  0
   44.0420   34.1950   28.1620 O   0  0  0  0  0  0  0  0  0  0  0  0
   39.8890   33.5090   26.6200 N   0  0  0  0  0  0  0  0  0  0  0  0
   31.7210   36.5530   24.6000 C   0  0  0  0  0  0  0  0  0  0  0  0
   41.4470   34.6310   28.4940 N   0  0  0  0  0  0  0  0  0  0  0  0
  1 13  1  0
  2  3  2  0
  3  6  1  0
  4 17  1  0
  4 16  1  0
  5 22  1  0
  6 13  1  0
  7 14  1  0
  8  3  1  0
  9  7  1  0
 11  6  1  0
 13 10  1  0
 13 20  1  0
 14 12  2  0
 14 19  1  0
 14 22  1  0
 15 11  1  0
 15 18  1  0
 16 21  1  0
 18  8  1  0
 18 17  1  0
 20  5  1  0
M  END
$$$$

     RDKit          3D

 16 17  0  0  0  0  0  0  0  0999 V2000
   43.0700   33.2520   24.4110 N   0  0  0  0  0  0  0  0  0  0  0  0
   42.1680   36.4280   25.7900 C   0  0  0  0  0  0  0  0  0  0  0  0
   39.8840   36.5420   23.5100 C   0  0  0  0  0  0  0  0  0  0  0  0
   39.7350   33.7470   28.4050 C   0  0  0  0  0  0  0  0  0  0  0  0
   39.8000   34.4860   24.6220 O   0  0  0  0  0  0  0  0  0  0  0  0
   40.5360   36.3790   26.3750 S   0  0  0  0  0  0  0  0  0  0  0  0
   42.2750   34.3260   24.5180 C   0  0  0  0  0  0  0  0  0  0  0  0
   40.9290   34.3900   23.7660 C   0  0  0  0  0  0  0  0  0  0  0  0
   41.7230   32.9180   27.4800 N   0  0  0  0  0  0  0  0  0  0  0  0
   42.8210   35.4180   25.0770 N   0  0  0  0  0  0  0  0  0  0  0  0
   39.5480   35.9550   24.8930 C   0  0  0  0  0  0  0  0  0  0  0  0
   40.5150   35.1890   21.5420 O   0  0  0  0  0  0  0  0  0  0  0  0
   42.8110   37.4040   26.2790 N   0  0  0  0  0  0  0  0  0  0  0  0
   40.9080   35.6210   22.8740 C   0  0  0  0  0  0  0  0  0  0  0  0
   41.3080   35.2350   27.5270 N   0  0  0  0  0  0  0  0  0  0  0  0
   40.9760   33.9810   27.7110 C   0  0  0  0  0  0  0  0  0  0  0  0
  2 13  2  0
  2  6  1  0
  5 11  1  0
  6 15  1  0
  7  1  1  0
  7 10  1  0
  8  7  1  0
  8  5  1  0
  9 16  2  0
 10  2  1  0
 11  3  1  0
 11  6  1  0
 14 12  1  0
 14  3  1  0
 14  8  1  0
 15 16  1  0
 16  4  1  0
M  END
$$$$

     RDKit          3D

 15 15  0  0  0  0  0  0  0  0999 V2000
   40.3870   33.2720   28.7480 C   0  0  0  0  0  0  0  0  0  0  0  0
   41.0370   32.5450   27.7410 C   0  0  0  0  0  0  0  0  0  0  0  0
   41.7160   37.1020   26.1500 C   0  0  0  0  0  0  0  0  0  0  0  0
   43.6860   35.9220   26.9190 O   0  0  0  0  0  0  0  0  0  0  0  0
   40.2770   37.0610   25.7770 O   0  0  0  0  0  0  0  0  0  0  0  0
   38.8060   34.9210   23.9090 O   0  0  0  0  0  0  0  0  0  0  0  0
   41.0840   34.6610   24.1440 O   0  0  0  0  0  0  0  0  0  0  0  0
   41.5320   37.5430   27.5620 N   0  0  0  0  0  0  0  0  0  0  0  0
   40.1390   34.5290   28.2230 C   0  0  0  0  0  0  0  0  0  0  0  0
   40.4490   34.5880   26.9180 C   0  0  0  0  0  0  0  0  0  0  0  0
   42.7310   38.5370   27.6530 C   0  0  0  0  0  0  0  0  0  0  0  0
   39.8530   35.0490   24.5780 C   0  0  0  0  0  0  0  0  0  0  0  0
   39.8040   35.6470   25.9770 C   0  0  0  0  0  0  0  0  0  0  0  0
   41.1080   33.3290   26.6240 N   0  0  0  0  0  0  0  0  0  0  0  0
   42.7280   36.0460   25.8750 C   0  0  0  0  0  0  0  0  0  0  0  0
  2  1  2  0
  3 15  1  0
  3  8  1  0
  5 13  1  0
  5  3  1  0
  6 12  2  0
  7 12  1  0
  8 11  1  0
  9  1  1  0
 10  9  1  0
 13 12  1  0
 13 10  1  0
 14 10  2  0
 14  2  1  0
 15  4  1  0
M  END
$$$$

     RDKit          3D

  9  8  0  0  0  0  0  0  0  0999 V2000
   42.2810   33.7380   25.9590 O   0  0  0  0  0  0  0  0  0  0  0  0
   39.2580   35.7940   25.4990 O   0  0  0  0  0  0  0  0  0  0  0  0
   41.1290   34.3900   25.3900 C   0  0  0  0  0  0  0  0  0  0  0  0
   40.2260   32.9520   28.0930 C   0  0  0  0  0  0  0  0  0  0  0  0
   43.0320   35.7070   24.2770 N   0  0  0  0  0  0  0  0  0  0  0  0
   40.3030   35.4340   26.4690 S   0  0  0  0  0  0  0  0  0  0  0  0
   40.5940   36.7510   26.6200 O   0  0  0  0  0  0  0  0  0  0  0  0
   41.5840   35.2860   24.2440 C   0  0  0  0  0  0  0  0  0  0  0  0
   40.3960   34.4830   27.9130 C   0  0  0  0  0  0  0  0  0  0  0  0
  2  6  2  0
  3  1  1  0
  3  6  1  0
  6  7  2  0
  6  9  1  0
  8  5  1  0
  8  3  1  0
  9  4  1  0
M  END
$$$$

     RDKit          3D

 16 16  0  0  0  0  0  0  0  0999 V2000
   40.8720   36.1490   25.3930 C   0  0  0  0  0  0  0  0  0  0  0  0
   39.7060   35.0010   27.0810 O   0  0  0  0  0  0  0  0  0  0  0  0
   38.7010   34.4110   23.8410 C   0  0  0  0  0  0  0  0  0  0  0  0
   39.4760   33.6800   24.5080 O   0  0  0  0  0  0  0  0  0  0  0  0
   39.7370   34.0580   28.2380 C   0  0  0  0  0  0  0  0  0  0  0  0
   39.4660   36.6020   24.8990 C   0  0  0  0  0  0  0  0  0  0  0  0
   39.0700   36.3510   22.4970 C   0  0  0  0  0  0  0  0  0  0  0  0
   39.0800   35.7810   23.6840 C   0  0  0  0  0  0  0  0  0  0  0  0
   37.6370   33.9890   23.3430 O   0  0  0  0  0  0  0  0  0  0  0  0
   40.3390   32.8920   28.1470 C   0  0  0  0  0  0  0  0  0  0  0  0
   43.2320   36.0280   26.8660 O   0  0  0  0  0  0  0  0  0  0  0  0
   42.1970   33.8770   26.8500 N   0  0  0  0  0  0  0  0  0  0  0  0
   42.1740   35.2720   27.3300 C   0  0  0  0  0  0  0  0  0  0  0  0
   40.8470   35.8730   26.9150 C   0  0  0  0  0  0  0  0  0  0  0  0
   41.8680   32.9880   27.9650 C   0  0  0  0  0  0  0  0  0  0  0  0
   41.6830   35.1360   24.0700 S   0  0  0  0  0  0  0  0  0  0  0  0
  1 16  1  0
  2  5  1  0
  3  4  1  0
  6  1  1  0
  7  8  2  0
  8  3  1  0
  8  6  1  0
  9  3  2  0
 10  5  1  0
 12 13  1  0
 12 15  1  0
 13 11  1  0
 14  1  1  0
 14  2  1  0
 14 13  1  0
 15 10  1  0
M  END
$$$$
