
     RDKit          3D

  7  8  0  0  0  0  0  0  0  0999 V2000
   40.9610   38.1420   31.2830 C   0  0  0  0  0  0  0  0  0  0  0  0
   41.2510   39.5610   30.8580 C   0  0  0  0  0  0  0  0  0  0  0  0
   42.7610   38.6710   34.3850 N   0  0  0  0  0  0  0  0  0  0  0  0
   42.3570   38.4920   31.8330 C   0  0  0  0  0  0  0  0  0  0  0  0
   41.1160   39.0500   29.3390 C   0  0  0  0  0  0  0  0  0  0  0  0
   42.3570   39.9970   31.8490 N   0  0  0  0  0  0  0  0  0  0  0  0
   42.8330   37.7980   33.1480 C   0  0  0  0  0  0  0  0  0  0  0  0
  1  4  1  0
  2  5  1  0
  2  1  1  0
  2  4  1  0
  2  6  1  0
  4  6  1  0
  4  7  1  0
  7  3  1  0
M  END
$$$$

     RDKit          3D

 10  9  0  0  0  0  0  0  0  0999 V2000
   42.3510   40.4320   30.7990 C   0  0  0  0  0  0  0  0  0  0  0  0
   43.7440   40.4770   31.4550 C   0  0  0  0  0  0  0  0  0  0  0  0
   40.8210   38.4840   30.4940 N   0  0  0  0  0  0  0  0  0  0  0  0
   42.1910   37.5940   32.5010 N   0  0  0  0  0  0  0  0  0  0  0  0
   42.7770   39.1160   34.0870 O   0  0  0  0  0  0  0  0  0  0  0  0
   43.9830   41.5310   32.5570 C   0  0  0  0  0  0  0  0  0  0  0  0
   42.0140   39.1530   30.0030 C   0  0  0  0  0  0  0  0  0  0  0  0
   43.9260   39.1410   32.1150 N   0  0  0  0  0  0  0  0  0  0  0  0
   41.8880   39.4540   28.5400 C   0  0  0  0  0  0  0  0  0  0  0  0
   42.9360   38.6410   32.9490 C   0  0  0  0  0  0  0  0  0  0  0  0
  1  2  1  0
  2  8  1  0
  2  6  1  0
  4 10  1  0
  7  9  1  0
  7  3  1  0
  7  1  1  0
  8 10  1  0
 10  5  2  0
M  END
$$$$

     RDKit          3D

  5  5  0  0  0  0  0  0  0  0999 V2000
   41.8650   39.7020   32.1290 C   0  0  0  0  0  0  0  0  0  0  0  0
   41.8400   39.9930   29.5400 C   0  0  0  0  0  0  0  0  0  0  0  0
   41.0750   39.8330   30.8260 N   0  0  0  0  0  0  0  0  0  0  0  0
   41.3030   38.4810   31.3880 C   0  0  0  0  0  0  0  0  0  0  0  0
   40.7600   39.1330   28.3870 S   0  0  0  0  0  0  0  0  0  0  0  0
  2  3  1  0
  3  4  1  0
  3  1  1  0
  4  1  1  0
  5  2  1  0
M  END
$$$$

     RDKit          3D

  8  7  0  0  0  0  0  0  0  0999 V2000
   43.4390   40.0160   33.2780 O   0  0  0  0  0  0  0  0  0  0  0  0
   39.7820   39.2600   29.0930 O   0  0  0  0  0  0  0  0  0  0  0  0
   43.6910   38.8350   30.6550 O   0  0  0  0  0  0  0  0  0  0  0  0
   41.3840   40.6480   30.2270 O   0  0  0  0  0  0  0  0  0  0  0  0
   42.3050   39.8720   32.3070 C   0  0  0  0  0  0  0  0  0  0  0  0
   42.5900   38.6320   31.4920 C   0  0  0  0  0  0  0  0  0  0  0  0
   41.3120   38.3140   30.6450 C   0  0  0  0  0  0  0  0  0  0  0  0
   41.1160   39.4050   29.6080 C   0  0  0  0  0  0  0  0  0  0  0  0
  2  8  1  0
  5  1  1  0
  6  3  1  0
  6  5  1  0
  7  6  1  0
  8  4  1  0
  8  7  1  0
M  END
$$$$

     RDKit          3D

  8  8  0  0  0  0  0  0  0  0999 V2000
   41.3170   38.6140   29.9090 C   0  0  0  0  0  0  0  0  0  0  0  0
   40.6800   40.0460   29.6790 C   0  0  0  0  0  0  0  0  0  0  0  0
   41.6950   41.2080   29.9150 C   0  0  0  0  0  0  0  0  0  0  0  0
   41.6440   38.5140   31.4320 C   0  0  0  0  0  0  0  0  0  0  0  0
   43.2830   40.3800   30.3130 S   0  0  0  0  0  0  0  0  0  0  0  0
   40.4370   37.6420   29.3340 O   0  0  0  0  0  0  0  0  0  0  0  0
   40.0610   39.8000   28.4520 O   0  0  0  0  0  0  0  0  0  0  0  0
   42.8520   39.5440   31.7340 C   0  0  0  0  0  0  0  0  0  0  0  0
  1  6  1  0
  1  4  1  0
  2  7  1  0
  2  1  1  0
  2  3  1  0
  3  5  1  0
  4  8  1  0
  5  8  1  0
M  END
$$$$

     RDKit          3D

 19 18  0  0  0  0  0  0  0  0999 V2000
   41.0860   42.8130   28.6790 C   0  0  0  0  0  0  0  0  0  0  0  0
   39.6980   33.5270   30.9900 C   0  0  0  0  0  0  0  0  0  0  0  0
   39.3610   31.8720   29.0080 N   0  0  0  0  0  0  0  0  0  0  0  0
   36.7190   33.2070   28.6240 S   0  0  0  0  0  0  0  0  0  0  0  0
   38.1780   33.1190   29.7070 C   0  0  0  0  0  0  0  0  0  0  0  0
   41.2490   36.0850   32.7930 C   0  0  0  0  0  0  0  0  0  0  0  0
   40.5890   40.4360   27.9250 C   0  0  0  0  0  0  0  0  0  0  0  0
   41.9770   40.4840   30.4010 O   0  0  0  0  0  0  0  0  0  0  0  0
   41.0230   34.3430   32.2660 S   0  0  0  0  0  0  0  0  0  0  0  0
   41.6070   39.3070   30.4890 C   0  0  0  0  0  0  0  0  0  0  0  0
   38.4880   32.6900   31.1590 C   0  0  0  0  0  0  0  0  0  0  0  0
   40.0710   41.8050   28.3570 C   0  0  0  0  0  0  0  0  0  0  0  0
   38.8800   42.1060   28.2510 O   0  0  0  0  0  0  0  0  0  0  0  0
   39.7910   39.1780   28.5420 C   0  0  0  0  0  0  0  0  0  0  0  0
   37.5870   31.6570   31.3700 O   0  0  0  0  0  0  0  0  0  0  0  0
   42.3670   38.3260   31.6700 C   0  0  0  0  0  0  0  0  0  0  0  0
   42.6100   39.2510   32.7450 N   0  0  0  0  0  0  0  0  0  0  0  0
   40.5560   38.5160   29.7190 C   0  0  0  0  0  0  0  0  0  0  0  0
   42.6010   36.7510   32.4130 C   0  0  0  0  0  0  0  0  0  0  0  0
  2 11  1  0
  2  9  1  0
  3  5  1  0
  5  4  1  0
  5 11  1  0
  7 12  1  0
  7 14  1  0
  8 10  2  0
  9  6  1  0
 10 16  1  0
 11 15  1  0
 12  1  1  0
 13 12  2  0
 14 18  1  0
 16 19  1  0
 16 17  1  0
 18 10  1  0
 19  6  1  0
M  END
$$$$

     RDKit          3D

 13 13  0  0  0  0  0  0  0  0999 V2000
   43.4320   36.7320   31.5270 O   0  0  0  0  0  0  0  0  0  0  0  0
   39.9230   37.4610   31.9210 C   0  0  0  0  0  0  0  0  0  0  0  0
   41.1590   38.1270   31.9590 N   0  0  0  0  0  0  0  0  0  0  0  0
   42.0140   34.5500   32.7100 O   0  0  0  0  0  0  0  0  0  0  0  0
   40.1560   36.0270   32.2590 C   0  0  0  0  0  0  0  0  0  0  0  0
   41.2990   39.1160   31.0500 C   0  0  0  0  0  0  0  0  0  0  0  0
   41.6470   38.3450   29.7060 C   0  0  0  0  0  0  0  0  0  0  0  0
   39.6440   35.2420   31.1990 O   0  0  0  0  0  0  0  0  0  0  0  0
   41.9580   39.4400   33.7460 O   0  0  0  0  0  0  0  0  0  0  0  0
   42.3350   37.3450   32.4040 C   0  0  0  0  0  0  0  0  0  0  0  0
   41.5830   35.9310   32.7580 C   0  0  0  0  0  0  0  0  0  0  0  0
   42.9980   38.6050   33.1630 C   0  0  0  0  0  0  0  0  0  0  0  0
   43.9810   39.3860   32.3090 C   0  0  0  0  0  0  0  0  0  0  0  0
  2  3  1  0
  2  5  1  0
  3 10  1  0
  5  8  1  0
  5 11  1  0
  6  3  1  0
  7  6  1  0
 10  1  1  0
 10 11  1  0
 10 12  1  0
 11  4  1  0
 12 13  1  0
 12  9  1  0
M  END
$$$$

     RDKit          3D

  7  6  0  0  0  0  0  0  0  0999 V2000
   42.2540   40.8790   30.7070 C   0  0  0  0  0  0  0  0  0  0  0  0
   43.3510   41.8490   29.6000 S   0  0  0  0  0  0  0  0  0  0  0  0
   41.0060   37.6970   29.7970 O   0  0  0  0  0  0  0  0  0  0  0  0
   41.2020   38.8270   30.4800 C   0  0  0  0  0  0  0  0  0  0  0  0
   42.2090   39.7360   28.6420 O   0  0  0  0  0  0  0  0  0  0  0  0
   42.2910   39.5070   30.0970 C   0  0  0  0  0  0  0  0  0  0  0  0
   43.0050   43.3810   30.2200 C   0  0  0  0  0  0  0  0  0  0  0  0
  2  7  1  0
  2  1  1  0
  3  4  1  0
  6  5  1  0
  6  4  1  0
  6  1  1  0
M  END
$$$$

     RDKit          3D

 14 14  0  0  0  0  0  0  0  0999 V2000
   45.5380   41.0660   31.8720 O   0  0  0  0  0  0  0  0  0  0  0  0
   40.4520   40.4500   29.1810 N   0  0  0  0  0  0  0  0  0  0  0  0
   41.8660   39.0780   30.7100 C   0  0  0  0  0  0  0  0  0  0  0  0
   44.2450   40.8680   32.3200 N   0  0  0  0  0  0  0  0  0  0  0  0
   44.7690   38.4810   31.4720 C   0  0  0  0  0  0  0  0  0  0  0  0
   40.8010   37.0020   32.2120 C   0  0  0  0  0  0  0  0  0  0  0  0
   42.4350   39.2210   32.2160 C   0  0  0  0  0  0  0  0  0  0  0  0
   42.1900   38.7440   29.1580 C   0  0  0  0  0  0  0  0  0  0  0  0
   43.9420   39.3640   32.4400 C   0  0  0  0  0  0  0  0  0  0  0  0
   44.2210   39.0690   33.7990 F   0  0  0  0  0  0  0  0  0  0  0  0
   40.6600   40.0430   30.5650 C   0  0  0  0  0  0  0  0  0  0  0  0
   41.3310   35.6740   32.7690 C   0  0  0  0  0  0  0  0  0  0  0  0
   41.8150   38.0030   31.7250 N   0  0  0  0  0  0  0  0  0  0  0  0
   39.9240   36.6120   31.0290 C   0  0  0  0  0  0  0  0  0  0  0  0
  1  4  1  0
  2 11  1  0
  3  8  1  0
  3 13  1  0
  3  7  1  0
  4  9  1  0
  6 12  1  0
  7  9  1  0
  9  5  1  0
  9 10  1  0
 11  3  1  0
 13  6  1  0
 13  7  1  0
 14  6  1  0
M  END
$$$$

     RDKit          3D

  6  5  0  0  0  0  0  0  0  0999 V2000
   42.2990   39.9510   33.5290 O   0  0  0  0  0  0  0  0  0  0  0  0
   42.7760   37.4080   32.9870 N   0  0  0  0  0  0  0  0  0  0  0  0
   41.1830   38.8530   31.5480 O   0  0  0  0  0  0  0  0  0  0  0  0
   43.7880   39.2440   31.2320 C   0  0  0  0  0  0  0  0  0  0  0  0
   42.4330   38.8390   32.4410 P   0  0  0  0  0  0  0  0  0  0  0  0
   43.3110   39.4190   29.7870 C   0  0  0  0  0  0  0  0  0  0  0  0
  4  5  1  0
  5  3  2  0
  5  2  1  0
  5  1  1  0
  6  4  1  0
M  END
$$$$

     RDKit          3D

 13 14  0  0  0  0  0  0  0  0999 V2000
   41.9930   42.4710   29.2880 N   0  0  0  0  0  0  0  0  0  0  0  0
   40.6480   39.3400   26.5580 C   0  0  0  0  0  0  0  0  0  0  0  0
   40.7560   37.6270   30.6350 O   0  0  0  0  0  0  0  0  0  0  0  0
   41.6160   41.2840   29.9870 C   0  0  0  0  0  0  0  0  0  0  0  0
   40.8250   42.8260   28.7980 C   0  0  0  0  0  0  0  0  0  0  0  0
   39.9520   41.7030   28.4540 N   0  0  0  0  0  0  0  0  0  0  0  0
   41.4660   38.5620   30.3330 C   0  0  0  0  0  0  0  0  0  0  0  0
   42.1830   39.2720   31.2570 O   0  0  0  0  0  0  0  0  0  0  0  0
   42.1700   39.5480   32.7130 C   0  0  0  0  0  0  0  0  0  0  0  0
   40.7830   40.4510   28.8040 P   0  0  0  0  0  0  0  0  0  0  0  0
   42.8070   38.5310   33.6170 N   0  0  0  0  0  0  0  0  0  0  0  0
   41.5870   38.9050   28.8510 C   0  0  0  0  0  0  0  0  0  0  0  0
   40.3430   39.0580   28.0030 C   0  0  0  0  0  0  0  0  0  0  0  0
  1  4  1  0
  5  1  1  0
  6  5  1  0
  6 10  1  0
  7  3  2  0
  7  8  1  0
  8  9  1  0
  9 11  1  0
 10 12  1  0
 10  4  1  0
 12  7  1  0
 13  2  1  0
 13 10  1  0
 13 12  1  0
M  END
$$$$

     RDKit          3D

  9  8  0  0  0  0  0  0  0  0999 V2000
   40.2030   40.2340   29.2560 O   0  0  0  0  0  0  0  0  0  0  0  0
   44.8870   41.0710   31.6910 S   0  0  0  0  0  0  0  0  0  0  0  0
   43.1740   39.2580   30.9420 C   0  0  0  0  0  0  0  0  0  0  0  0
   42.2230   38.2310   31.4000 N   0  0  0  0  0  0  0  0  0  0  0  0
   42.8460   40.3510   30.1580 O   0  0  0  0  0  0  0  0  0  0  0  0
   40.6740   39.0640   29.7260 C   0  0  0  0  0  0  0  0  0  0  0  0
   40.8870   38.1830   28.8920 O   0  0  0  0  0  0  0  0  0  0  0  0
   40.8590   38.7610   31.1480 C   0  0  0  0  0  0  0  0  0  0  0  0
   44.0540   39.6490   32.0890 C   0  0  0  0  0  0  0  0  0  0  0  0
  1  6  1  0
  2  9  1  0
  3  4  1  0
  3  9  1  0
  5  3  2  0
  6  8  1  0
  7  6  2  0
  8  4  1  0
M  END
$$$$

     RDKit          3D

  7  6  0  0  0  0  0  0  0  0999 V2000
   43.7840   38.5930   34.4590 O   0  0  0  0  0  0  0  0  0  0  0  0
   42.9920   39.0760   33.6030 C   0  0  0  0  0  0  0  0  0  0  0  0
   42.8250   38.5780   32.2730 N   0  0  0  0  0  0  0  0  0  0  0  0
   40.6110   39.5370   30.4290 I   0  0  0  0  0  0  0  0  0  0  0  0
   41.5220   38.1880   31.6810 C   0  0  0  0  0  0  0  0  0  0  0  0
   42.3660   40.1080   33.9450 O   0  0  0  0  0  0  0  0  0  0  0  0
   43.7430   38.9170   31.1380 C   0  0  0  0  0  0  0  0  0  0  0  0
  2  6  2  0
  2  1  1  0
  3  2  1  0
  4  5  1  0
  5  3  1  0
  7  3  1  0
M  END
$$$$

     RDKit          3D

 16 15  0  0  0  0  0  0  0  0999 V2000
   40.6090   35.7900   32.9670 N   0  0  0  0  0  0  0  0  0  0  0  0
   42.7390   40.1230   32.6030 C   0  0  0  0  0  0  0  0  0  0  0  0
   41.1000   34.8050   32.0110 C   0  0  0  0  0  0  0  0  0  0  0  0
   40.3250   37.0610   32.6050 C   0  0  0  0  0  0  0  0  0  0  0  0
   42.0730   38.1170   31.0170 C   0  0  0  0  0  0  0  0  0  0  0  0
   39.8010   37.8460   33.3380 O   0  0  0  0  0  0  0  0  0  0  0  0
   42.5900   34.8700   31.5090 C   0  0  0  0  0  0  0  0  0  0  0  0
   40.3150   32.4650   30.7180 C   0  0  0  0  0  0  0  0  0  0  0  0
   40.1030   33.8770   31.3270 C   0  0  0  0  0  0  0  0  0  0  0  0
   42.0190   39.6100   33.8100 N   0  0  0  0  0  0  0  0  0  0  0  0
   39.3670   31.3190   29.0490 N   0  0  0  0  0  0  0  0  0  0  0  0
   40.2480   31.5110   29.9900 N   0  0  0  0  0  0  0  0  0  0  0  0
   37.8880   33.1000   30.2020 S   0  0  0  0  0  0  0  0  0  0  0  0
   40.7740   37.4370   31.1650 C   0  0  0  0  0  0  0  0  0  0  0  0
   38.7830   34.4730   31.0350 C   0  0  0  0  0  0  0  0  0  0  0  0
   42.3970   39.3880   31.3210 C   0  0  0  0  0  0  0  0  0  0  0  0
  2 10  1  0
  3  7  1  0
  3  1  1  0
  4  1  1  0
  4  6  2  0
  5 14  1  0
  5 16  1  0
  9  8  1  0
  9  3  1  0
 11 12  1  0
 12  8  1  0
 13 15  1  0
 14  4  1  0
 15  9  1  0
 16  2  1  0
M  END
$$$$

     RDKit          3D

 12 12  0  0  0  0  0  0  0  0999 V2000
   43.2920   39.7830   32.8200 C   0  0  0  0  0  0  0  0  0  0  0  0
   40.1210   42.0250   29.7420 C   0  0  0  0  0  0  0  0  0  0  0  0
   41.0710   41.2500   30.3980 C   0  0  0  0  0  0  0  0  0  0  0  0
   41.6980   37.8360   32.4210 N   0  0  0  0  0  0  0  0  0  0  0  0
   40.7310   39.5180   28.8440 C   0  0  0  0  0  0  0  0  0  0  0  0
   39.8220   40.2670   28.1880 N   0  0  0  0  0  0  0  0  0  0  0  0
   39.5040   41.4990   28.6270 C   0  0  0  0  0  0  0  0  0  0  0  0
   42.7990   38.6910   31.9150 C   0  0  0  0  0  0  0  0  0  0  0  0
   41.3930   39.9750   29.9710 C   0  0  0  0  0  0  0  0  0  0  0  0
   44.7020   39.7140   32.7320 O   0  0  0  0  0  0  0  0  0  0  0  0
   42.5880   39.1820   30.4940 C   0  0  0  0  0  0  0  0  0  0  0  0
   40.9890   38.3500   28.4600 O   0  0  0  0  0  0  0  0  0  0  0  0
  2  3  2  0
  5  9  1  0
  6  7  2  0
  6  5  1  0
  7  2  1  0
  8  4  1  0
  8  1  1  0
  9  3  1  0
  9 11  1  0
 10  1  1  0
 11  8  1  0
 12  5  2  0
M  END
$$$$

     RDKit          3D

 13 13  0  0  0  0  0  0  0  0999 V2000
   40.8300   42.1310   28.9060 O   0  0  0  0  0  0  0  0  0  0  0  0
   44.6590   38.6620   30.1900 O   0  0  0  0  0  0  0  0  0  0  0  0
   42.2380   39.6260   32.6610 O   0  0  0  0  0  0  0  0  0  0  0  0
   41.1080   39.2210   28.9830 C   0  0  0  0  0  0  0  0  0  0  0  0
   41.9640   38.2090   32.8210 O   0  0  0  0  0  0  0  0  0  0  0  0
   40.2890   39.4610   30.3180 O   0  0  0  0  0  0  0  0  0  0  0  0
   43.1190   40.1160   31.4360 C   0  0  0  0  0  0  0  0  0  0  0  0
   41.5570   41.6230   30.2770 C   0  0  0  0  0  0  0  0  0  0  0  0
   42.4820   40.8420   30.4590 O   0  0  0  0  0  0  0  0  0  0  0  0
   39.4780   42.4140   29.0240 C   0  0  0  0  0  0  0  0  0  0  0  0
   41.5860   38.9560   30.3320 C   0  0  0  0  0  0  0  0  0  0  0  0
   40.7220   38.0110   28.2600 O   0  0  0  0  0  0  0  0  0  0  0  0
   43.1600   38.9720   30.3820 C   0  0  0  0  0  0  0  0  0  0  0  0
  1 10  1  0
  1  8  1  0
  3  5  1  0
  4 12  1  0
  4  6  1  0
  4 11  1  0
  6 11  1  0
  7  9  1  0
  7  3  1  0
  8  9  1  0
 11 13  1  0
 13  2  1  0
 13  7  1  0
M  END
$$$$

     RDKit          3D

 15 14  0  0  0  0  0  0  0  0999 V2000
   42.7760   40.9920   34.3510 O   0  0  0  0  0  0  0  0  0  0  0  0
   43.0560   39.6860   33.5540 P   0  0  0  0  0  0  0  0  0  0  0  0
   40.0330   39.4790   28.0210 O   0  0  0  0  0  0  0  0  0  0  0  0
   42.6550   38.9570   29.4620 O   0  0  0  0  0  0  0  0  0  0  0  0
   43.4940   39.4630   32.0500 O   0  0  0  0  0  0  0  0  0  0  0  0
   41.8500   40.7290   30.8600 C   0  0  0  0  0  0  0  0  0  0  0  0
   41.4890   39.5450   29.9440 C   0  0  0  0  0  0  0  0  0  0  0  0
   42.3330   41.7390   29.8390 N   0  0  0  0  0  0  0  0  0  0  0  0
   40.7740   38.5060   30.7510 C   0  0  0  0  0  0  0  0  0  0  0  0
   40.5430   40.2380   28.9900 C   0  0  0  0  0  0  0  0  0  0  0  0
   39.7790   41.2020   29.4240 O   0  0  0  0  0  0  0  0  0  0  0  0
   43.3350   38.3730   34.2710 O   0  0  0  0  0  0  0  0  0  0  0  0
   40.6110   37.3060   30.2700 O   0  0  0  0  0  0  0  0  0  0  0  0
   42.1650   39.9040   32.1510 O   0  0  0  0  0  0  0  0  0  0  0  0
   41.6640   43.0680   29.8680 C   0  0  0  0  0  0  0  0  0  0  0  0
  2 12  2  0
  2  1  2  0
  3 10  2  0
  5 14  1  0
  5  2  1  0
  6  8  1  0
  6 14  1  0
  7  4  1  0
  7  9  1  0
  7  6  1  0
  8 15  1  0
 10 11  1  0
 10  7  1  0
 13  9  1  0
M  END
$$$$

     RDKit          3D

 10  9  0  0  0  0  0  0  0  0999 V2000
   43.0620   39.3100   32.8910 C   0  0  0  0  0  0  0  0  0  0  0  0
   43.3200   39.8520   30.5530 O   0  0  0  0  0  0  0  0  0  0  0  0
   40.2910   40.3590   29.4150 O   0  0  0  0  0  0  0  0  0  0  0  0
   42.3510   39.7400   31.6170 C   0  0  0  0  0  0  0  0  0  0  0  0
   41.4170   37.4730   31.3850 O   0  0  0  0  0  0  0  0  0  0  0  0
   40.8200   39.2360   29.6800 C   0  0  0  0  0  0  0  0  0  0  0  0
   44.3280   39.3260   32.8550 O   0  0  0  0  0  0  0  0  0  0  0  0
   41.1050   38.3730   28.7730 O   0  0  0  0  0  0  0  0  0  0  0  0
   41.1430   38.8720   31.1550 C   0  0  0  0  0  0  0  0  0  0  0  0
   42.4000   39.0280   33.9740 O   0  0  0  0  0  0  0  0  0  0  0  0
  1 10  1  0
  3  6  1  0
  4  2  1  0
  4  1  1  0
  6  9  1  0
  7  1  2  0
  8  6  2  0
  9  5  1  0
  9  4  1  0
M  END
$$$$

     RDKit          3D

 18 19  0  0  0  0  0  0  0  0999 V2000
   39.2550   41.0020   28.7030 C   0  0  0  0  0  0  0  0  0  0  0  0
   42.1200   38.9200   31.9190 C   0  0  0  0  0  0  0  0  0  0  0  0
   40.8910   38.3820   28.7450 C   0  0  0  0  0  0  0  0  0  0  0  0
   40.5930   35.5180   32.4140 C   0  0  0  0  0  0  0  0  0  0  0  0
   41.9450   37.4660   31.9430 N   0  0  0  0  0  0  0  0  0  0  0  0
   43.0420   39.6270   29.2300 C   0  0  0  0  0  0  0  0  0  0  0  0
   39.0980   41.2520   26.2300 O   0  0  0  0  0  0  0  0  0  0  0  0
   41.4890   39.6450   29.3990 C   0  0  0  0  0  0  0  0  0  0  0  0
   38.5940   40.9760   27.3180 C   0  0  0  0  0  0  0  0  0  0  0  0
   41.3240   42.3430   28.7500 C   0  0  0  0  0  0  0  0  0  0  0  0
   40.8230   38.7170   27.2520 C   0  0  0  0  0  0  0  0  0  0  0  0
   41.1540   39.6120   30.9200 C   0  0  0  0  0  0  0  0  0  0  0  0
   38.9210   42.4150   29.1720 C   0  0  0  0  0  0  0  0  0  0  0  0
   40.1420   43.2690   29.1960 C   0  0  0  0  0  0  0  0  0  0  0  0
   40.8260   40.8540   28.5410 C   0  0  0  0  0  0  0  0  0  0  0  0
   41.0640   40.2480   27.1190 C   0  0  0  0  0  0  0  0  0  0  0  0
   40.7480   37.0180   32.6470 C   0  0  0  0  0  0  0  0  0  0  0  0
   37.0880   40.7860   27.4460 C   0  0  0  0  0  0  0  0  0  0  0  0
  1  9  1  0
  1 13  1  0
  2  5  1  0
  3  8  1  0
  4 17  1  0
  5 17  1  0
  7  9  2  0
  8  6  1  0
  8 12  1  0
  9 18  1  0
 10 14  1  0
 11  3  1  0
 12  2  1  0
 13 14  2  0
 15 16  1  0
 15  1  1  0
 15 10  1  0
 15  8  1  0
 16 11  1  0
M  END
$$$$

     RDKit          3D

 12 11  0  0  0  0  0  0  0  0999 V2000
   41.5820   38.2850   32.5990 C   0  0  0  0  0  0  0  0  0  0  0  0
   42.1100   38.4120   30.0870 C   0  0  0  0  0  0  0  0  0  0  0  0
   40.3330   35.5800   32.6440 C   0  0  0  0  0  0  0  0  0  0  0  0
   42.3970   39.5580   32.8710 C   0  0  0  0  0  0  0  0  0  0  0  0
   44.3150   40.7240   31.8510 O   0  0  0  0  0  0  0  0  0  0  0  0
   43.2220   39.3750   34.0420 O   0  0  0  0  0  0  0  0  0  0  0  0
   41.7560   35.7660   33.1190 C   0  0  0  0  0  0  0  0  0  0  0  0
   41.8810   37.2050   33.2020 N   0  0  0  0  0  0  0  0  0  0  0  0
   43.2970   39.8460   31.7490 C   0  0  0  0  0  0  0  0  0  0  0  0
   42.9270   39.1110   30.4020 C   0  0  0  0  0  0  0  0  0  0  0  0
   43.2600   38.7990   29.1340 C   0  0  0  0  0  0  0  0  0  0  0  0
   40.2050   36.1380   31.4560 O   0  0  0  0  0  0  0  0  0  0  0  0
  1  4  1  0
  1  8  1  0
  2 10  2  0
  3  7  1  0
  4  6  1  0
  7  8  1  0
  9  5  1  0
  9  4  1  0
 10  9  1  0
 11 10  1  0
 12  3  1  0
M  END
$$$$
