
     RDKit          3D

 14 14  0  0  0  0  0  0  0  0999 V2000
   39.9060   36.6050   26.7790 O   0  0  0  0  0  0  0  0  0  0  0  0
   41.7140   39.4530   28.0610 C   0  0  0  0  0  0  0  0  0  0  0  0
   43.9170   40.9870   27.0270 O   0  0  0  0  0  0  0  0  0  0  0  0
   42.0200   37.8350   26.7030 C   0  0  0  0  0  0  0  0  0  0  0  0
   39.7850   38.6540   29.6040 O   0  0  0  0  0  0  0  0  0  0  0  0
   40.5450   36.3120   28.0250 N   0  0  0  0  0  0  0  0  0  0  0  0
   41.6110   38.9370   25.7190 C   0  0  0  0  0  0  0  0  0  0  0  0
   41.2720   38.2610   27.9090 C   0  0  0  0  0  0  0  0  0  0  0  0
   40.2680   39.5870   25.7340 C   0  0  0  0  0  0  0  0  0  0  0  0
   43.4600   39.9110   26.3390 C   0  0  0  0  0  0  0  0  0  0  0  0
   40.5720   36.4290   29.1110 C   0  0  0  0  0  0  0  0  0  0  0  0
   40.7280   35.1890   30.4850 Br  0  0  0  0  0  0  0  0  0  0  0  0
   40.7010   37.8060   29.0810 C   0  0  0  0  0  0  0  0  0  0  0  0
   42.0770   39.9860   26.7390 C   0  0  0  0  0  0  0  0  0  0  0  0
  1  6  1  0
  4  8  1  0
  6 11  1  0
  7  9  1  0
  7  4  1  0
  7 14  1  0
  8  2  1  0
  8 13  1  0
 10  3  1  0
 11 12  1  0
 13 11  1  0
 13  5  1  0
 14 10  1  0
 14  2  1  0
M  END
$$$$

     RDKit          3D

 16 16  0  0  0  0  0  0  0  0999 V2000
   40.3800   40.0170   29.9670 O   0  0  0  0  0  0  0  0  0  0  0  0
   40.0530   36.3010   27.9670 O   0  0  0  0  0  0  0  0  0  0  0  0
   42.3680   39.7800   29.1310 N   0  0  0  0  0  0  0  0  0  0  0  0
   41.5070   39.2930   28.2730 C   0  0  0  0  0  0  0  0  0  0  0  0
   42.8660   39.2360   31.4070 O   0  0  0  0  0  0  0  0  0  0  0  0
   41.8300   37.9290   27.5390 C   0  0  0  0  0  0  0  0  0  0  0  0
   44.1880   38.6050   26.9020 C   0  0  0  0  0  0  0  0  0  0  0  0
   45.4880   36.7940   28.5570 O   0  0  0  0  0  0  0  0  0  0  0  0
   40.4940   37.3330   27.1420 C   0  0  0  0  0  0  0  0  0  0  0  0
   43.0240   36.4020   26.3900 O   0  0  0  0  0  0  0  0  0  0  0  0
   43.2680   37.4510   27.2910 C   0  0  0  0  0  0  0  0  0  0  0  0
   43.3660   39.1430   30.0720 C   0  0  0  0  0  0  0  0  0  0  0  0
   40.2030   39.4670   28.8230 C   0  0  0  0  0  0  0  0  0  0  0  0
   44.0560   36.9630   28.5210 C   0  0  0  0  0  0  0  0  0  0  0  0
   43.6240   37.6500   29.8640 C   0  0  0  0  0  0  0  0  0  0  0  0
   39.6930   36.9420   25.9400 C   0  0  0  0  0  0  0  0  0  0  0  0
  3 12  1  0
  4 13  1  0
  4  3  1  0
  6  9  1  0
  6  4  1  0
  9 16  1  0
  9  2  1  0
 10 11  1  0
 11  7  1  0
 11  6  1  0
 11 14  1  0
 12  5  1  0
 13  1  1  0
 14  8  1  0
 14 15  1  0
 15 12  1  0
M  END
$$$$

     RDKit          3D

 16 16  0  0  0  0  0  0  0  0999 V2000
   39.3660   37.3320   29.6760 F   0  0  0  0  0  0  0  0  0  0  0  0
   40.1340   38.3970   27.0280 O   0  0  0  0  0  0  0  0  0  0  0  0
   40.5630   39.0640   30.1660 N   0  0  0  0  0  0  0  0  0  0  0  0
   45.2220   36.8830   30.3270 C   0  0  0  0  0  0  0  0  0  0  0  0
   42.2110   37.2820   26.4750 N   0  0  0  0  0  0  0  0  0  0  0  0
   39.7860   36.6280   26.3250 O   0  0  0  0  0  0  0  0  0  0  0  0
   44.1040   37.2760   28.1470 C   0  0  0  0  0  0  0  0  0  0  0  0
   40.6640   37.4490   26.6110 C   0  0  0  0  0  0  0  0  0  0  0  0
   38.6940   38.6970   31.6530 O   0  0  0  0  0  0  0  0  0  0  0  0
   40.5870   37.9460   29.6920 C   0  0  0  0  0  0  0  0  0  0  0  0
   42.7750   36.4780   30.0590 O   0  0  0  0  0  0  0  0  0  0  0  0
   39.7850   39.2690   31.3220 N   0  0  0  0  0  0  0  0  0  0  0  0
   42.6000   37.6340   27.9860 C   0  0  0  0  0  0  0  0  0  0  0  0
   41.5990   37.1510   29.0390 C   0  0  0  0  0  0  0  0  0  0  0  0
   44.1440   36.5450   29.4310 C   0  0  0  0  0  0  0  0  0  0  0  0
   41.8830   39.7320   30.4170 C   0  0  0  0  0  0  0  0  0  0  0  0
  3 16  1  0
  3 12  1  0
  5  8  1  0
  6  8  2  0
  7 15  1  0
  8  2  1  0
 10  1  1  0
 10  3  1  0
 12  9  1  0
 13  5  1  0
 13  7  1  0
 13 14  1  0
 14 10  1  0
 14 11  1  0
 15 11  1  0
 15  4  1  0
M  END
$$$$

     RDKit          3D

 15 16  0  0  0  0  0  0  0  0999 V2000
   40.6160   38.2390   27.6470 C   0  0  0  0  0  0  0  0  0  0  0  0
   40.5050   36.9940   28.3740 C   0  0  0  0  0  0  0  0  0  0  0  0
   40.1920   41.3870   24.0290 N   0  0  0  0  0  0  0  0  0  0  0  0
   41.0460   35.4660   30.1790 C   0  0  0  0  0  0  0  0  0  0  0  0
   39.8550   37.1500   26.0690 O   0  0  0  0  0  0  0  0  0  0  0  0
   41.8470   36.5780   28.3330 N   0  0  0  0  0  0  0  0  0  0  0  0
   42.2910   40.6500   24.7250 O   0  0  0  0  0  0  0  0  0  0  0  0
   39.3910   40.5470   24.9830 C   0  0  0  0  0  0  0  0  0  0  0  0
   41.3680   36.8620   29.6650 C   0  0  0  0  0  0  0  0  0  0  0  0
   39.7600   38.4580   26.6420 C   0  0  0  0  0  0  0  0  0  0  0  0
   40.2730   39.4090   25.4560 C   0  0  0  0  0  0  0  0  0  0  0  0
   41.7850   38.7230   27.6410 O   0  0  0  0  0  0  0  0  0  0  0  0
   40.8870   39.7450   29.4230 O   0  0  0  0  0  0  0  0  0  0  0  0
   41.8380   39.4210   25.3350 C   0  0  0  0  0  0  0  0  0  0  0  0
   41.3510   39.1280   28.6240 C   0  0  0  0  0  0  0  0  0  0  0  0
  1 10  1  0
  1  2  1  0
  1 15  1  0
  2  6  1  0
  2  9  1  0
  3  8  1  0
  6  9  1  0
  7 14  1  0
  9  4  1  0
 10  5  1  0
 11  8  1  0
 11 10  1  0
 12  1  1  0
 12 15  1  0
 14 11  1  0
 15 13  2  0
M  END
$$$$

     RDKit          3D

 14 14  0  0  0  0  0  0  0  0999 V2000
   43.1050   38.5060   30.6960 C   0  0  0  0  0  0  0  0  0  0  0  0
   39.5140   38.6020   24.9320 C   0  0  0  0  0  0  0  0  0  0  0  0
   42.2090   37.9350   29.6070 C   0  0  0  0  0  0  0  0  0  0  0  0
   40.4250   38.6710   27.8840 N   0  0  0  0  0  0  0  0  0  0  0  0
   40.7460   37.6100   26.8950 C   0  0  0  0  0  0  0  0  0  0  0  0
   38.4490   38.5230   25.8680 O   0  0  0  0  0  0  0  0  0  0  0  0
   41.2660   38.9910   29.0390 C   0  0  0  0  0  0  0  0  0  0  0  0
   42.9010   37.4810   28.3380 C   0  0  0  0  0  0  0  0  0  0  0  0
   42.2930   40.7560   27.5910 O   0  0  0  0  0  0  0  0  0  0  0  0
   42.1770   40.2540   28.7600 C   0  0  0  0  0  0  0  0  0  0  0  0
   42.7800   40.6900   29.7930 O   0  0  0  0  0  0  0  0  0  0  0  0
   42.1470   37.0770   27.2040 C   0  0  0  0  0  0  0  0  0  0  0  0
   40.8030   38.3900   25.6810 O   0  0  0  0  0  0  0  0  0  0  0  0
   41.5460   36.6630   30.0920 N   0  0  0  0  0  0  0  0  0  0  0  0
  2 13  1  0
  2  6  1  0
  3 14  1  0
  3  1  1  0
  4  7  1  0
  5 13  1  0
  5 12  1  0
  5  4  1  0
  7 10  1  0
  7  3  1  0
  8  3  1  0
  9 10  2  0
 10 11  1  0
 12  8  1  0
M  END
$$$$

     RDKit          3D

 10  9  0  0  0  0  0  0  0  0999 V2000
   43.6710   39.4380   27.1400 O   0  0  0  0  0  0  0  0  0  0  0  0
   44.4900   36.9640   28.2120 O   0  0  0  0  0  0  0  0  0  0  0  0
   41.9300   39.2740   28.8040 C   0  0  0  0  0  0  0  0  0  0  0  0
   40.5640   36.4640   28.5980 O   0  0  0  0  0  0  0  0  0  0  0  0
   42.9990   37.1690   28.1950 C   0  0  0  0  0  0  0  0  0  0  0  0
   42.6230   36.8720   29.6110 C   0  0  0  0  0  0  0  0  0  0  0  0
   41.1610   37.0050   29.7610 C   0  0  0  0  0  0  0  0  0  0  0  0
   42.3150   39.9840   29.7910 O   0  0  0  0  0  0  0  0  0  0  0  0
   40.7370   39.1930   28.4310 O   0  0  0  0  0  0  0  0  0  0  0  0
   42.8630   38.6600   27.9550 C   0  0  0  0  0  0  0  0  0  0  0  0
  3  8  1  0
  4  7  1  0
  5  2  1  0
  5  6  1  0
  6  7  1  0
  9  3  2  0
 10  1  1  0
 10  5  1  0
 10  3  1  0
M  END
$$$$

     RDKit          3D

 20 20  0  0  0  0  0  0  0  0999 V2000
   43.2840   37.6830   27.4510 C   0  0  0  0  0  0  0  0  0  0  0  0
   39.0690   38.2970   25.4900 C   0  0  0  0  0  0  0  0  0  0  0  0
   39.8010   39.1530   26.4870 C   0  0  0  0  0  0  0  0  0  0  0  0
   41.6060   38.1400   29.2710 C   0  0  0  0  0  0  0  0  0  0  0  0
   45.1910   38.7940   28.9030 O   0  0  0  0  0  0  0  0  0  0  0  0
   41.4000   35.7410   29.6890 N   0  0  0  0  0  0  0  0  0  0  0  0
   39.6660   37.3390   24.9510 O   0  0  0  0  0  0  0  0  0  0  0  0
   40.2750   36.3550   29.1660 C   0  0  0  0  0  0  0  0  0  0  0  0
   40.2020   36.7420   27.6800 C   0  0  0  0  0  0  0  0  0  0  0  0
   40.9250   39.0850   28.5410 O   0  0  0  0  0  0  0  0  0  0  0  0
   44.1040   37.0190   26.5140 O   0  0  0  0  0  0  0  0  0  0  0  0
   44.0000   37.9420   28.8380 C   0  0  0  0  0  0  0  0  0  0  0  0
   41.0820   34.6050   30.5120 C   0  0  0  0  0  0  0  0  0  0  0  0
   41.3020   39.5020   26.1220 C   0  0  0  0  0  0  0  0  0  0  0  0
   40.2680   38.2570   27.6090 C   0  0  0  0  0  0  0  0  0  0  0  0
   43.0350   37.8170   31.0440 N   0  0  0  0  0  0  0  0  0  0  0  0
   42.6760   38.9730   26.8220 C   0  0  0  0  0  0  0  0  0  0  0  0
   42.9290   38.4860   29.7470 C   0  0  0  0  0  0  0  0  0  0  0  0
   37.8300   38.8010   25.0230 O   0  0  0  0  0  0  0  0  0  0  0  0
   37.0280   39.9820   25.4840 C   0  0  0  0  0  0  0  0  0  0  0  0
  1 11  1  0
  1 12  1  0
  3  2  1  0
  3 15  1  0
  4 18  1  0
  6 13  1  0
  7  2  2  0
  8  6  1  0
  9  8  1  0
 10  4  1  0
 12  5  1  0
 12 18  1  0
 14  3  1  0
 14 17  1  0
 15  9  1  0
 15 10  1  0
 17  1  1  0
 18 16  1  0
 19 20  1  0
 19  2  1  0
M  END
$$$$

     RDKit          3D

 12 12  0  0  0  0  0  0  0  0999 V2000
   39.6280   36.5020   25.8600 O   0  0  0  0  0  0  0  0  0  0  0  0
   40.0650   39.7180   28.6230 O   0  0  0  0  0  0  0  0  0  0  0  0
   41.1360   38.1440   27.1580 C   0  0  0  0  0  0  0  0  0  0  0  0
   42.7010   37.9930   30.1300 O   0  0  0  0  0  0  0  0  0  0  0  0
   43.5840   37.4690   27.4800 C   0  0  0  0  0  0  0  0  0  0  0  0
   42.3950   38.9030   29.0850 C   0  0  0  0  0  0  0  0  0  0  0  0
   41.4050   40.6320   30.5720 O   0  0  0  0  0  0  0  0  0  0  0  0
   40.9790   38.6230   28.5810 C   0  0  0  0  0  0  0  0  0  0  0  0
   42.4330   40.3080   29.5880 C   0  0  0  0  0  0  0  0  0  0  0  0
   43.4280   38.7270   28.1150 O   0  0  0  0  0  0  0  0  0  0  0  0
   39.7590   37.7710   26.5520 C   0  0  0  0  0  0  0  0  0  0  0  0
   42.1320   36.9760   27.2450 C   0  0  0  0  0  0  0  0  0  0  0  0
  1 11  1  0
  3 11  1  0
  3 12  1  0
  3  8  1  0
  5 10  1  0
  6  9  1  0
  6  4  1  0
  8  2  1  0
  8  6  1  0
  9  7  1  0
 10  6  1  0
 12  5  1  0
M  END
$$$$

     RDKit          3D

 22 23  0  0  0  0  0  0  0  0999 V2000
   41.1040   36.0830   29.1670 N   0  0  0  0  0  0  0  0  0  0  0  0
   40.9890   38.5180   28.9270 C   0  0  0  0  0  0  0  0  0  0  0  0
   40.0830   37.5650   26.8440 C   0  0  0  0  0  0  0  0  0  0  0  0
   40.4870   38.9200   30.2230 C   0  0  0  0  0  0  0  0  0  0  0  0
   43.1560   40.9130   30.0040 N   0  0  0  0  0  0  0  0  0  0  0  0
   43.2330   41.6060   28.8780 C   0  0  0  0  0  0  0  0  0  0  0  0
   43.1510   42.4400   26.5480 C   0  0  0  0  0  0  0  0  0  0  0  0
   39.3870   39.8040   25.7000 C   0  0  0  0  0  0  0  0  0  0  0  0
   42.1550   39.8550   29.8970 C   0  0  0  0  0  0  0  0  0  0  0  0
   39.4030   34.7920   30.1230 C   0  0  0  0  0  0  0  0  0  0  0  0
   41.3020   39.7250   30.9260 N   0  0  0  0  0  0  0  0  0  0  0  0
   40.6240   38.8480   26.0000 C   0  0  0  0  0  0  0  0  0  0  0  0
   43.5510   43.7520   26.8950 C   0  0  0  0  0  0  0  0  0  0  0  0
   40.6410   37.2250   28.1880 C   0  0  0  0  0  0  0  0  0  0  0  0
   42.4700   36.2690   29.4330 C   0  0  0  0  0  0  0  0  0  0  0  0
   39.3060   36.8200   26.3050 O   0  0  0  0  0  0  0  0  0  0  0  0
   41.0890   38.5100   24.5420 C   0  0  0  0  0  0  0  0  0  0  0  0
   43.0130   41.3200   27.5060 C   0  0  0  0  0  0  0  0  0  0  0  0
   41.9810   39.2870   28.6990 N   0  0  0  0  0  0  0  0  0  0  0  0
   43.8450   44.0370   28.3710 C   0  0  0  0  0  0  0  0  0  0  0  0
   40.8300   34.9050   30.3990 C   0  0  0  0  0  0  0  0  0  0  0  0
   43.6400   43.0300   29.2300 C   0  0  0  0  0  0  0  0  0  0  0  0
  1 15  1  0
  1 21  1  0
  2 14  1  0
  2  4  1  0
  4 11  1  0
  6 22  1  0
  6  5  1  0
  7 13  2  0
  7 18  1  0
  8 12  1  0
  9  5  1  0
  9 11  2  0
 10 21  1  0
 12  3  1  0
 13 20  1  0
 14  3  1  0
 14  1  1  0
 16  3  2  0
 17 12  1  0
 18  6  2  0
 19  2  1  0
 19  9  2  0
 20 22  2  0
M  END
$$$$

     RDKit          3D

 11 11  0  0  0  0  0  0  0  0999 V2000
   41.6730   39.3790   27.9230 C   0  0  0  0  0  0  0  0  0  0  0  0
   40.5130   36.5440   29.8320 C   0  0  0  0  0  0  0  0  0  0  0  0
   40.8640   37.9190   30.3060 C   0  0  0  0  0  0  0  0  0  0  0  0
   40.3450   36.5630   25.8880 C   0  0  0  0  0  0  0  0  0  0  0  0
   43.2180   37.8600   26.4790 O   0  0  0  0  0  0  0  0  0  0  0  0
   40.2630   35.3630   30.7660 C   0  0  0  0  0  0  0  0  0  0  0  0
   41.3500   40.1590   26.4840 C   0  0  0  0  0  0  0  0  0  0  0  0
   41.2650   38.8450   29.4190 C   0  0  0  0  0  0  0  0  0  0  0  0
   40.5300   36.4380   28.5000 N   0  0  0  0  0  0  0  0  0  0  0  0
   42.1930   37.9930   27.4510 C   0  0  0  0  0  0  0  0  0  0  0  0
   40.9250   36.9640   27.3220 C   0  0  0  0  0  0  0  0  0  0  0  0
  1  8  1  0
  2  3  2  0
  2  6  1  0
  4 11  1  0
  5 10  1  0
  7  1  1  0
  8  3  1  0
  9  2  1  0
 10  1  2  0
 11 10  1  0
 11  9  2  0
M  END
$$$$

     RDKit          3D

 16 17  0  0  0  0  0  0  0  0999 V2000
   44.2300   40.3750   28.1420 O   0  0  0  0  0  0  0  0  0  0  0  0
   40.1600   38.6110   27.4780 C   0  0  0  0  0  0  0  0  0  0  0  0
   43.0900   39.9210   28.4030 C   0  0  0  0  0  0  0  0  0  0  0  0
   42.5070   40.3270   29.5430 O   0  0  0  0  0  0  0  0  0  0  0  0
   41.3420   37.0420   29.4840 C   0  0  0  0  0  0  0  0  0  0  0  0
   42.5670   38.9120   27.3080 C   0  0  0  0  0  0  0  0  0  0  0  0
   40.5130   39.2670   30.1120 N   0  0  0  0  0  0  0  0  0  0  0  0
   41.0100   39.7360   27.2320 O   0  0  0  0  0  0  0  0  0  0  0  0
   39.4320   37.8880   25.1690 O   0  0  0  0  0  0  0  0  0  0  0  0
   39.6110   36.3260   26.6080 O   0  0  0  0  0  0  0  0  0  0  0  0
   40.9570   35.0730   30.5390 C   0  0  0  0  0  0  0  0  0  0  0  0
   40.0120   37.3830   26.1350 C   0  0  0  0  0  0  0  0  0  0  0  0
   40.4030   36.3360   30.3250 N   0  0  0  0  0  0  0  0  0  0  0  0
   41.3760   37.7010   26.8310 C   0  0  0  0  0  0  0  0  0  0  0  0
   43.6170   37.7730   27.2380 O   0  0  0  0  0  0  0  0  0  0  0  0
   40.5440   38.2260   28.9330 C   0  0  0  0  0  0  0  0  0  0  0  0
  1  3  2  0
  2 16  1  0
  3  4  1  0
  5 13  1  0
  6 15  1  0
  6  3  1  0
  8  6  1  0
  8  2  1  0
  9 12  1  0
 12 10  1  0
 12  2  1  0
 13 11  1  0
 14 12  1  0
 14  6  1  0
 14  2  1  0
 16  5  1  0
 16  7  1  0
M  END
$$$$

     RDKit          3D

 12 12  0  0  0  0  0  0  0  0999 V2000
   42.7850   37.5390   27.8570 C   0  0  0  0  0  0  0  0  0  0  0  0
   41.6610   39.9430   30.7520 C   0  0  0  0  0  0  0  0  0  0  0  0
   41.2100   38.9560   28.5060 C   0  0  0  0  0  0  0  0  0  0  0  0
   40.1440   38.1170   30.4920 O   0  0  0  0  0  0  0  0  0  0  0  0
   40.5800   37.8280   27.7730 C   0  0  0  0  0  0  0  0  0  0  0  0
   43.4000   36.5740   28.0560 O   0  0  0  0  0  0  0  0  0  0  0  0
   42.6210   38.6800   28.2910 N   0  0  0  0  0  0  0  0  0  0  0  0
   43.1040   41.4620   29.7150 C   0  0  0  0  0  0  0  0  0  0  0  0
   41.7810   41.2100   30.1840 O   0  0  0  0  0  0  0  0  0  0  0  0
   42.2630   39.7820   31.8150 O   0  0  0  0  0  0  0  0  0  0  0  0
   40.9570   38.9700   30.0080 C   0  0  0  0  0  0  0  0  0  0  0  0
   41.4470   37.3090   26.9300 O   0  0  0  0  0  0  0  0  0  0  0  0
  1  6  2  0
  1  7  1  0
  2 10  2  0
  3 11  1  0
  5  3  1  0
  7  3  1  0
  8  9  1  0
  9  2  1  0
 11  4  2  0
 11  2  1  0
 12  5  1  0
 12  1  1  0
M  END
$$$$

     RDKit          3D

 22 23  0  0  0  0  0  0  0  0999 V2000
   40.3960   38.4180   29.5730 C   0  0  0  0  0  0  0  0  0  0  0  0
   44.0370   37.5570   27.6220 S   0  0  0  0  0  0  0  0  0  0  0  0
   40.0290   41.4730   25.2600 C   0  0  0  0  0  0  0  0  0  0  0  0
   41.1550   35.0320   31.0900 C   0  0  0  0  0  0  0  0  0  0  0  0
   38.6190   41.3290   24.7080 C   0  0  0  0  0  0  0  0  0  0  0  0
   43.7470   40.2830   27.8700 C   0  0  0  0  0  0  0  0  0  0  0  0
   42.4780   37.1060   27.4440 C   0  0  0  0  0  0  0  0  0  0  0  0
   40.4100   40.3760   26.2090 C   0  0  0  0  0  0  0  0  0  0  0  0
   40.7640   37.1080   30.0540 N   0  0  0  0  0  0  0  0  0  0  0  0
   40.6310   35.8020   29.5720 C   0  0  0  0  0  0  0  0  0  0  0  0
   39.6120   38.9870   25.9730 C   0  0  0  0  0  0  0  0  0  0  0  0
   41.3690   40.4090   27.4410 C   0  0  0  0  0  0  0  0  0  0  0  0
   38.5000   33.7950   30.3280 C   0  0  0  0  0  0  0  0  0  0  0  0
   40.4330   34.5780   31.2680 C   0  0  0  0  0  0  0  0  0  0  0  0
   40.8550   39.1670   28.3600 C   0  0  0  0  0  0  0  0  0  0  0  0
   39.2880   34.6490   29.5370 O   0  0  0  0  0  0  0  0  0  0  0  0
   40.0060   38.2600   27.2800 C   0  0  0  0  0  0  0  0  0  0  0  0
   39.1370   34.2730   31.0280 C   0  0  0  0  0  0  0  0  0  0  0  0
   41.9710   38.3870   27.9880 O   0  0  0  0  0  0  0  0  0  0  0  0
   42.8840   40.4510   27.1160 C   0  0  0  0  0  0  0  0  0  0  0  0
   44.2930   39.0300   28.5490 C   0  0  0  0  0  0  0  0  0  0  0  0
   40.0620   39.2820   30.5920 O   0  0  0  0  0  0  0  0  0  0  0  0
  1  9  1  0
  1 22  2  0
  2 21  1  0
  4 14  1  0
  5  3  1  0
  6 21  1  0
  7  2  1  0
  7 19  1  0
  8  3  1  0
  8 12  1  0
 10  9  1  0
 10  4  1  0
 11  8  1  0
 11 17  1  0
 12 20  1  0
 12 15  1  0
 13 18  1  0
 15  1  1  0
 16 13  1  0
 17 15  1  0
 18 14  1  0
 19 15  1  0
 20  6  1  0
M  END
$$$$

     RDKit          3D

  7  6  0  0  0  0  0  0  0  0999 V2000
   41.5960   37.2500   26.8270 C   0  0  0  0  0  0  0  0  0  0  0  0
   44.0830   37.5160   27.5970 C   0  0  0  0  0  0  0  0  0  0  0  0
   42.5890   37.4990   27.9770 N   0  0  0  0  0  0  0  0  0  0  0  0
   42.3160   36.7990   29.2030 O   0  0  0  0  0  0  0  0  0  0  0  0
   44.1290   38.8800   25.5910 O   0  0  0  0  0  0  0  0  0  0  0  0
   45.8230   39.1150   26.9170 O   0  0  0  0  0  0  0  0  0  0  0  0
   44.6470   38.6220   26.6650 C   0  0  0  0  0  0  0  0  0  0  0  0
  1  3  1  0
  2  3  1  0
  3  4  1  0
  5  7  2  0
  7  6  1  0
  7  2  1  0
M  END
$$$$

     RDKit          3D

 10 10  0  0  0  0  0  0  0  0999 V2000
   42.3710   36.2390   29.4360 N   0  0  0  0  0  0  0  0  0  0  0  0
   41.6540   38.5860   29.8630 C   0  0  0  0  0  0  0  0  0  0  0  0
   42.1270   41.6860   30.8490 O   0  0  0  0  0  0  0  0  0  0  0  0
   41.6990   40.8160   30.2480 C   0  0  0  0  0  0  0  0  0  0  0  0
   40.2190   38.9520   27.2680 C   0  0  0  0  0  0  0  0  0  0  0  0
   40.9690   40.0790   27.9680 C   0  0  0  0  0  0  0  0  0  0  0  0
   42.3880   38.6060   30.9470 N   0  0  0  0  0  0  0  0  0  0  0  0
   40.7670   37.3260   27.6540 S   0  0  0  0  0  0  0  0  0  0  0  0
   41.5700   37.3700   29.0720 C   0  0  0  0  0  0  0  0  0  0  0  0
   41.0740   39.9770   29.4910 C   0  0  0  0  0  0  0  0  0  0  0  0
  2  7  2  0
  4  3  1  0
  5  8  1  0
  5  6  1  0
  6 10  1  0
  8  9  1  0
  9  1  1  0
  9  2  1  0
 10  2  1  0
 10  4  1  0
M  END
$$$$

     RDKit          3D

 19 19  0  0  0  0  0  0  0  0999 V2000
   40.5980   36.7010   29.1480 O   0  0  0  0  0  0  0  0  0  0  0  0
   44.0750   38.2030   25.7480 C   0  0  0  0  0  0  0  0  0  0  0  0
   43.7950   36.9750   26.0800 C   0  0  0  0  0  0  0  0  0  0  0  0
   40.8430   34.9750   30.6620 C   0  0  0  0  0  0  0  0  0  0  0  0
   39.6700   36.9660   26.0890 O   0  0  0  0  0  0  0  0  0  0  0  0
   40.4470   38.5650   27.8510 N   0  0  0  0  0  0  0  0  0  0  0  0
   40.1140   38.5960   31.0170 O   0  0  0  0  0  0  0  0  0  0  0  0
   40.6720   39.2760   28.8200 C   0  0  0  0  0  0  0  0  0  0  0  0
   42.5160   39.4340   24.3060 O   0  0  0  0  0  0  0  0  0  0  0  0
   40.9380   40.3880   29.8040 O   0  0  0  0  0  0  0  0  0  0  0  0
   41.5910   35.9340   29.8890 N   0  0  0  0  0  0  0  0  0  0  0  0
   42.2760   40.4040   30.2610 C   0  0  0  0  0  0  0  0  0  0  0  0
   39.8840   39.3570   25.5740 O   0  0  0  0  0  0  0  0  0  0  0  0
   42.5490   36.9330   26.7090 C   0  0  0  0  0  0  0  0  0  0  0  0
   40.3340   38.1990   26.2110 S   0  0  0  0  0  0  0  0  0  0  0  0
   40.1270   38.0420   29.7010 C   0  0  0  0  0  0  0  0  0  0  0  0
   42.9810   38.8370   25.5260 C   0  0  0  0  0  0  0  0  0  0  0  0
   42.8400   39.8510   31.2960 C   0  0  0  0  0  0  0  0  0  0  0  0
   42.0210   38.0230   26.2680 C   0  0  0  0  0  0  0  0  0  0  0  0
  1 16  1  0
  1 11  1  0
  2  3  1  0
  3 14  1  0
  5 15  2  0
  8  6  1  0
  8 16  1  0
  8 10  1  0
 10 12  1  0
 11  4  1  0
 12 18  2  0
 13 15  2  0
 15  6  1  0
 16  7  2  0
 17  9  1  0
 17  2  1  0
 17 19  1  0
 19 15  1  0
 19 14  1  0
M  END
$$$$

     RDKit          3D

  6  5  0  0  0  0  0  0  0  0999 V2000
   40.0020   36.4450   26.7660 C   0  0  0  0  0  0  0  0  0  0  0  0
   41.2730   37.2510   27.1630 C   0  0  0  0  0  0  0  0  0  0  0  0
   41.5490   37.1660   28.6410 C   0  0  0  0  0  0  0  0  0  0  0  0
   42.4540   36.7370   26.4290 N   0  0  0  0  0  0  0  0  0  0  0  0
   41.0560   39.6160   28.7460 N   0  0  0  0  0  0  0  0  0  0  0  0
   41.5450   38.4720   29.5090 C   0  0  0  0  0  0  0  0  0  0  0  0
  2  1  1  0
  2  3  1  0
  3  6  1  0
  4  2  1  0
  5  6  1  0
M  END
$$$$

     RDKit          3D

 17 17  0  0  0  0  0  0  0  0999 V2000
   43.0450   38.4340   25.1350 P   0  0  0  0  0  0  0  0  0  0  0  0
   44.0850   39.6160   25.1910 O   0  0  0  0  0  0  0  0  0  0  0  0
   42.6040   35.9800   29.5670 O   0  0  0  0  0  0  0  0  0  0  0  0
   42.1200   36.8030   28.7940 C   0  0  0  0  0  0  0  0  0  0  0  0
   41.9880   38.6130   24.0530 O   0  0  0  0  0  0  0  0  0  0  0  0
   40.8730   40.4930   25.2490 O   0  0  0  0  0  0  0  0  0  0  0  0
   39.1060   39.6170   25.9510 O   0  0  0  0  0  0  0  0  0  0  0  0
   44.0520   37.2230   25.0100 O   0  0  0  0  0  0  0  0  0  0  0  0
   40.1760   38.1840   28.0680 C   0  0  0  0  0  0  0  0  0  0  0  0
   40.3010   39.6900   25.9710 C   0  0  0  0  0  0  0  0  0  0  0  0
   42.0610   38.0680   26.5890 C   0  0  0  0  0  0  0  0  0  0  0  0
   40.6430   36.9620   28.7890 C   0  0  0  0  0  0  0  0  0  0  0  0
   42.5920   38.1530   30.8930 O   0  0  0  0  0  0  0  0  0  0  0  0
   42.5360   38.9350   30.0060 C   0  0  0  0  0  0  0  0  0  0  0  0
   42.9130   37.6700   27.8970 C   0  0  0  0  0  0  0  0  0  0  0  0
   42.8210   39.1010   28.5470 C   0  0  0  0  0  0  0  0  0  0  0  0
   41.0000   38.6110   26.8320 C   0  0  0  0  0  0  0  0  0  0  0  0
  1  2  1  0
  4  3  2  0
  5  1  2  0
  6 10  2  0
  7 10  1  0
  8  1  1  0
  9 12  1  0
 10 17  1  0
 11  1  1  0
 11 17  1  0
 11 15  1  0
 12  4  1  0
 14 13  2  0
 15 16  1  0
 15  4  1  0
 16 14  1  0
 17  9  2  0
M  END
$$$$

     RDKit          3D

  8  7  0  0  0  0  0  0  0  0999 V2000
   41.8200   38.5880   27.3000 C   0  0  0  0  0  0  0  0  0  0  0  0
   41.5300   39.1680   29.6860 P   0  0  0  0  0  0  0  0  0  0  0  0
   42.2040   37.4490   27.3910 O   0  0  0  0  0  0  0  0  0  0  0  0
   41.9120   40.0880   30.7050 O   0  0  0  0  0  0  0  0  0  0  0  0
   42.1770   37.9560   30.2070 O   0  0  0  0  0  0  0  0  0  0  0  0
   40.1380   38.9350   29.4750 O   0  0  0  0  0  0  0  0  0  0  0  0
   42.4730   39.4450   28.3440 C   0  0  0  0  0  0  0  0  0  0  0  0
   42.6360   40.2110   27.5420 O   0  0  0  0  0  0  0  0  0  0  0  0
  1  3  1  0
  1  7  1  0
  2  5  1  0
  2  4  1  0
  6  2  2  0
  7  8  1  0
  7  2  1  0
M  END
$$$$

     RDKit          3D

 15 17  0  0  0  0  0  0  0  0999 V2000
   40.5890   37.6990   27.9240 C   0  0  0  0  0  0  0  0  0  0  0  0
   38.9080   37.7200   26.4420 O   0  0  0  0  0  0  0  0  0  0  0  0
   44.4280   37.5940   27.1930 O   0  0  0  0  0  0  0  0  0  0  0  0
   41.8630   38.2100   28.0410 O   0  0  0  0  0  0  0  0  0  0  0  0
   38.4200   38.4670   25.3390 C   0  0  0  0  0  0  0  0  0  0  0  0
   40.3430   36.8250   28.7940 C   0  0  0  0  0  0  0  0  0  0  0  0
   43.6890   38.7740   26.7040 C   0  0  0  0  0  0  0  0  0  0  0  0
   40.8860   36.0080   29.9010 C   0  0  0  0  0  0  0  0  0  0  0  0
   42.9520   40.9620   25.9360 C   0  0  0  0  0  0  0  0  0  0  0  0
   42.3110   38.4640   26.5860 C   0  0  0  0  0  0  0  0  0  0  0  0
   42.5190   39.9420   26.7400 C   0  0  0  0  0  0  0  0  0  0  0  0
   39.8330   35.6540   28.9280 O   0  0  0  0  0  0  0  0  0  0  0  0
   41.1220   38.4540   25.9150 O   0  0  0  0  0  0  0  0  0  0  0  0
   40.2560   37.5890   26.4210 C   0  0  0  0  0  0  0  0  0  0  0  0
   42.2530   35.4720   29.7310 N   0  0  0  0  0  0  0  0  0  0  0  0
  1  4  1  0
  1  6  1  0
  5  2  1  0
  6 12  1  0
  6  8  1  0
  7 11  1  0
  7  3  1  0
  8 15  1  0
 10 13  1  0
 10  7  1  0
 10 11  1  0
 10  4  1  0
 11  9  1  0
 12  8  1  0
 13 14  1  0
 14  2  1  0
 14  1  1  0
M  END
$$$$
