
     RDKit          3D

 27 27  0  0  0  0  0  0  0  0999 V2000
   35.8800   36.4570   32.6470 C   0  0  0  0  0  0  0  0  0  0  0  0
   37.3180   35.1030   36.8000 C   0  0  0  0  0  0  0  0  0  0  0  0
   37.4090   38.3330   32.3340 C   0  0  0  0  0  0  0  0  0  0  0  0
   36.9610   38.2400   30.9640 O   0  0  0  0  0  0  0  0  0  0  0  0
   37.2350   37.0150   32.9040 N   0  0  0  0  0  0  0  0  0  0  0  0
   40.9290   41.2820   32.0060 C   0  0  0  0  0  0  0  0  0  0  0  0
   35.9380   33.2200   36.6090 C   0  0  0  0  0  0  0  0  0  0  0  0
   35.6490   33.8260   32.6390 C   0  0  0  0  0  0  0  0  0  0  0  0
   40.4010   38.3100   31.5350 F   0  0  0  0  0  0  0  0  0  0  0  0
   39.5180   39.3260   31.3140 C   0  0  0  0  0  0  0  0  0  0  0  0
   38.0370   35.8060   37.6590 N   0  0  0  0  0  0  0  0  0  0  0  0
   36.2010   32.4250   34.4550 F   0  0  0  0  0  0  0  0  0  0  0  0
   36.1340   34.7860   34.7970 C   0  0  0  0  0  0  0  0  0  0  0  0
   40.0280   40.9390   33.0690 C   0  0  0  0  0  0  0  0  0  0  0  0
   34.0710   33.3970   32.8830 O   0  0  0  0  0  0  0  0  0  0  0  0
   38.4290   39.3170   32.4070 C   0  0  0  0  0  0  0  0  0  0  0  0
   42.7920   43.3460   31.6790 C   0  0  0  0  0  0  0  0  0  0  0  0
   36.6790   34.0340   37.4110 C   0  0  0  0  0  0  0  0  0  0  0  0
   36.1600   33.5850   31.6310 O   0  0  0  0  0  0  0  0  0  0  0  0
   42.3340   41.5110   30.1880 O   0  0  0  0  0  0  0  0  0  0  0  0
   42.4520   44.1910   30.6290 C   0  0  0  0  0  0  0  0  0  0  0  0
   35.7190   35.1480   33.4120 C   0  0  0  0  0  0  0  0  0  0  0  0
   36.0730   33.4800   35.2660 C   0  0  0  0  0  0  0  0  0  0  0  0
   36.9530   35.5880   35.6160 C   0  0  0  0  0  0  0  0  0  0  0  0
   40.3230   40.4510   31.8110 C   0  0  0  0  0  0  0  0  0  0  0  0
   42.1790   41.9300   31.4980 C   0  0  0  0  0  0  0  0  0  0  0  0
   43.9690   43.5560   32.2960 C   0  0  0  0  0  0  0  0  0  0  0  0
  1  5  1  0
  2 18  1  0
  2 11  2  0
  3 16  1  0
  3  5  1  0
  4  3  2  0
  7 18  1  0
  8 15  1  0
  8 22  1  0
 10  9  1  0
 10 25  1  0
 10 16  1  0
 13 23  1  0
 13 24  2  0
 17 27  2  0
 19  8  2  0
 21 17  1  0
 22  1  1  0
 22 13  1  0
 23 12  1  0
 23  7  1  0
 24  2  1  0
 25  6  1  0
 25 14  1  0
 26 20  1  0
 26 17  1  0
 26  6  1  0
M  END
$$$$

     RDKit          3D

 14 13  0  0  0  0  0  0  0  0999 V2000
   39.1920   40.7360   29.2690 O   0  0  0  0  0  0  0  0  0  0  0  0
   35.8210   38.3010   31.8300 C   0  0  0  0  0  0  0  0  0  0  0  0
   37.1530   40.7290   32.3890 C   0  0  0  0  0  0  0  0  0  0  0  0
   36.1910   41.2870   32.4960 O   0  0  0  0  0  0  0  0  0  0  0  0
   39.0860   38.6800   30.2860 C   0  0  0  0  0  0  0  0  0  0  0  0
   38.2000   39.1070   31.5250 C   0  0  0  0  0  0  0  0  0  0  0  0
   36.8390   38.6840   30.9460 C   0  0  0  0  0  0  0  0  0  0  0  0
   39.8440   39.8740   29.9290 C   0  0  0  0  0  0  0  0  0  0  0  0
   39.4870   41.5200   32.9560 O   0  0  0  0  0  0  0  0  0  0  0  0
   34.3340   38.3390   31.5340 C   0  0  0  0  0  0  0  0  0  0  0  0
   41.0280   40.0860   30.2550 O   0  0  0  0  0  0  0  0  0  0  0  0
   36.2690   37.6320   33.1200 C   0  0  0  0  0  0  0  0  0  0  0  0
   35.3170   36.4910   33.4930 C   0  0  0  0  0  0  0  0  0  0  0  0
   38.5370   40.3130   32.2460 C   0  0  0  0  0  0  0  0  0  0  0  0
  1  8  2  0
  2 10  1  0
  2 12  1  0
  3  4  2  0
  6  5  1  0
  6 14  1  0
  7  6  1  0
  7  2  1  0
  8 11  1  0
  8  5  1  0
 12 13  1  0
 14  3  2  0
 14  9  1  0
M  END
$$$$

     RDKit          3D

 15 14  0  0  0  0  0  0  0  0999 V2000
   40.6400   38.9890   29.9290 O   0  0  0  0  0  0  0  0  0  0  0  0
   38.6840   38.1810   30.9210 C   0  0  0  0  0  0  0  0  0  0  0  0
   36.8890   37.5220   32.5710 C   0  0  0  0  0  0  0  0  0  0  0  0
   42.3990   41.4430   32.3760 C   0  0  0  0  0  0  0  0  0  0  0  0
   39.8100   39.1470   30.9230 C   0  0  0  0  0  0  0  0  0  0  0  0
   36.7150   39.5100   31.2140 O   0  0  0  0  0  0  0  0  0  0  0  0
   40.4760   39.6230   32.1220 C   0  0  0  0  0  0  0  0  0  0  0  0
   43.7830   42.5540   34.2120 C   0  0  0  0  0  0  0  0  0  0  0  0
   42.0880   42.1810   33.9750 S   0  0  0  0  0  0  0  0  0  0  0  0
   41.7690   40.4080   31.7660 C   0  0  0  0  0  0  0  0  0  0  0  0
   36.5140   38.3590   33.5280 O   0  0  0  0  0  0  0  0  0  0  0  0
   39.6990   40.2200   33.1470 N   0  0  0  0  0  0  0  0  0  0  0  0
   44.6440   43.5190   32.8650 S   0  0  0  0  0  0  0  0  0  0  0  0
   41.3830   43.4250   33.4740 O   0  0  0  0  0  0  0  0  0  0  0  0
   37.3950   38.5460   31.5520 C   0  0  0  0  0  0  0  0  0  0  0  0
  2  5  1  0
  2 15  1  0
  3 11  1  0
  4  9  1  0
  5  1  1  0
  5  7  1  0
  6 15  2  0
  7 12  1  0
  9 14  2  0
  9  8  1  0
 10  7  1  0
 10  4  2  3
 13  8  1  0
 15  3  1  0
M  END
$$$$

     RDKit          3D

 10  9  0  0  0  0  0  0  0  0999 V2000
   40.5100   41.1500   32.0330 O   0  0  0  0  0  0  0  0  0  0  0  0
   40.8670   43.2330   33.1800 C   0  0  0  0  0  0  0  0  0  0  0  0
   38.2280   43.6370   32.3150 O   0  0  0  0  0  0  0  0  0  0  0  0
   37.4720   43.1600   29.6160 O   0  0  0  0  0  0  0  0  0  0  0  0
   38.9380   42.8400   31.5310 C   0  0  0  0  0  0  0  0  0  0  0  0
   38.8040   42.8880   29.9880 C   0  0  0  0  0  0  0  0  0  0  0  0
   39.5340   39.2030   28.9130 O   0  0  0  0  0  0  0  0  0  0  0  0
   39.1530   41.4610   29.4990 C   0  0  0  0  0  0  0  0  0  0  0  0
   40.5070   42.8240   31.7570 C   0  0  0  0  0  0  0  0  0  0  0  0
   38.7390   40.4990   28.4210 C   0  0  0  0  0  0  0  0  0  0  0  0
  5  9  1  0
  5  3  1  0
  6  4  1  0
  6  5  1  0
  8  6  1  0
  9  1  1  0
  9  2  1  0
 10  7  1  0
 10  8  1  0
M  END
$$$$

     RDKit          3D

 30 31  0  0  0  0  0  0  0  0999 V2000
   35.7930   38.4080   32.5720 C   0  0  0  0  0  0  0  0  0  0  0  0
   36.7400   37.2650   32.0840 C   0  0  0  0  0  0  0  0  0  0  0  0
   33.5690   32.0640   32.4560 C   0  0  0  0  0  0  0  0  0  0  0  0
   36.8720   32.1620   30.3440 O   0  0  0  0  0  0  0  0  0  0  0  0
   37.5580   32.0750   31.4620 C   0  0  0  0  0  0  0  0  0  0  0  0
   39.9180   44.6150   35.7880 N   0  0  0  0  0  0  0  0  0  0  0  0
   41.2140   43.0000   34.8200 C   0  0  0  0  0  0  0  0  0  0  0  0
   36.2040   34.8460   31.2740 C   0  0  0  0  0  0  0  0  0  0  0  0
   40.4820   43.9110   34.9330 C   0  0  0  0  0  0  0  0  0  0  0  0
   40.7790   43.6850   32.5390 C   0  0  0  0  0  0  0  0  0  0  0  0
   36.8780   32.8860   32.0500 N   0  0  0  0  0  0  0  0  0  0  0  0
   41.5010   41.0150   30.5510 C   0  0  0  0  0  0  0  0  0  0  0  0
   34.2250   34.3560   33.2470 C   0  0  0  0  0  0  0  0  0  0  0  0
   38.0600   37.0640   32.8150 C   0  0  0  0  0  0  0  0  0  0  0  0
   39.2320   37.3770   31.9740 C   0  0  0  0  0  0  0  0  0  0  0  0
   42.7470   41.7100   30.5740 N   0  0  0  0  0  0  0  0  0  0  0  0
   35.9340   35.9350   32.0810 C   0  0  0  0  0  0  0  0  0  0  0  0
   38.7070   31.5680   31.7890 C   0  0  0  0  0  0  0  0  0  0  0  0
   41.0670   42.3810   32.6370 C   0  0  0  0  0  0  0  0  0  0  0  0
   39.4000   38.7320   31.3280 C   0  0  0  0  0  0  0  0  0  0  0  0
   35.9380   33.6080   31.9520 C   0  0  0  0  0  0  0  0  0  0  0  0
   41.5910   42.1390   33.8280 C   0  0  0  0  0  0  0  0  0  0  0  0
   40.4770   41.5910   31.5030 C   0  0  0  0  0  0  0  0  0  0  0  0
   38.6840   39.3640   30.5970 O   0  0  0  0  0  0  0  0  0  0  0  0
   39.7350   44.2220   33.1970 C   0  0  0  0  0  0  0  0  0  0  0  0
   34.3930   33.3330   32.1160 C   0  0  0  0  0  0  0  0  0  0  0  0
   41.7320   39.6710   31.2480 C   0  0  0  0  0  0  0  0  0  0  0  0
   32.5570   31.5370   33.0140 N   0  0  0  0  0  0  0  0  0  0  0  0
   40.7150   39.0560   31.7260 N   0  0  0  0  0  0  0  0  0  0  0  0
   34.8840   35.6820   33.0850 N   0  0  0  0  0  0  0  0  0  0  0  0
  2  1  1  0
  2 14  1  0
  3 28  2  0
  4  5  2  0
  5 18  1  0
  5 11  1  0
  7  9  2  0
  8 21  1  0
  8 17  1  0
  9  6  1  0
 10 19  1  0
 10 25  1  0
 12 16  1  0
 12 27  1  0
 12 23  1  0
 15 14  1  0
 17  2  1  0
 17 30  2  0
 19 23  1  0
 19 22  1  0
 20 29  1  0
 20 15  1  0
 21 11  1  0
 21 26  1  0
 22  7  1  0
 24 20  2  0
 25  9  1  0
 26  3  1  0
 26 13  1  0
 27 29  1  0
 30 13  1  0
M  END
$$$$

     RDKit          3D

  6  5  0  0  0  0  0  0  0  0999 V2000
   40.9080   42.5140   30.2380 O   0  0  0  0  0  0  0  0  0  0  0  0
   40.2190   40.2760   27.9910 O   0  0  0  0  0  0  0  0  0  0  0  0
   40.6350   41.3500   28.2940 C   0  0  0  0  0  0  0  0  0  0  0  0
   39.9500   41.5280   29.9420 C   0  0  0  0  0  0  0  0  0  0  0  0
   38.6710   42.1310   29.5140 C   0  0  0  0  0  0  0  0  0  0  0  0
   41.0890   42.3490   27.7740 O   0  0  0  0  0  0  0  0  0  0  0  0
  2  3  1  0
  3  4  1  0
  4  5  1  0
  4  1  1  0
  6  3  2  0
M  END
$$$$

     RDKit          3D

  4  3  0  0  0  0  0  0  0  0999 V2000
   40.3550   41.4910   33.6430 O   0  0  0  0  0  0  0  0  0  0  0  0
   41.9500   42.0990   32.4360 O   0  0  0  0  0  0  0  0  0  0  0  0
   41.8130   39.9090   32.8080 N   0  0  0  0  0  0  0  0  0  0  0  0
   41.3570   41.1650   32.9640 C   0  0  0  0  0  0  0  0  0  0  0  0
  2  4  2  0
  3  4  1  0
  4  1  1  0
M  END
$$$$

     RDKit          3D

 20 22  0  0  0  0  0  0  0  0999 V2000
   42.4660   39.9980   36.5840 C   0  0  0  0  0  0  0  0  0  0  0  0
   34.7370   36.8500   32.2760 C   0  0  0  0  0  0  0  0  0  0  0  0
   39.0610   37.7480   30.2500 N   0  0  0  0  0  0  0  0  0  0  0  0
   38.2890   37.4000   31.2470 C   0  0  0  0  0  0  0  0  0  0  0  0
   36.7660   37.2980   30.9770 C   0  0  0  0  0  0  0  0  0  0  0  0
   34.9520   35.5490   32.5600 N   0  0  0  0  0  0  0  0  0  0  0  0
   41.1300   39.4110   34.6890 C   0  0  0  0  0  0  0  0  0  0  0  0
   38.7630   37.7420   32.4550 N   0  0  0  0  0  0  0  0  0  0  0  0
   41.2210   39.7100   35.9170 C   0  0  0  0  0  0  0  0  0  0  0  0
   40.4310   38.1720   34.2720 C   0  0  0  0  0  0  0  0  0  0  0  0
   36.6080   37.6940   33.5250 C   0  0  0  0  0  0  0  0  0  0  0  0
   42.7230   40.1300   39.3370 C   0  0  0  0  0  0  0  0  0  0  0  0
   33.5810   37.2550   32.1600 O   0  0  0  0  0  0  0  0  0  0  0  0
   42.0330   39.9790   37.9520 C   0  0  0  0  0  0  0  0  0  0  0  0
   35.9630   37.7550   32.1550 C   0  0  0  0  0  0  0  0  0  0  0  0
   40.1430   39.5510   36.4940 C   0  0  0  0  0  0  0  0  0  0  0  0
   39.0280   38.3770   34.6260 N   0  0  0  0  0  0  0  0  0  0  0  0
   38.9350   39.1040   35.8230 C   0  0  0  0  0  0  0  0  0  0  0  0
   38.0710   37.6140   33.7310 C   0  0  0  0  0  0  0  0  0  0  0  0
   40.9270   39.5700   37.7540 N   0  0  0  0  0  0  0  0  0  0  0  0
  1 14  1  0
  2  6  1  0
  3  4  2  0
  4  8  1  0
  5  4  1  0
  5 15  1  0
  7  9  1  0
  8 19  1  0
  9 16  2  0
  9  1  1  0
 10  7  1  0
 13  2  2  0
 14 12  1  0
 15  2  1  0
 15 11  1  0
 16 20  1  0
 17 10  1  0
 17 18  1  0
 18 16  1  0
 19 11  1  0
 19 17  1  0
 20 14  1  0
M  END
$$$$

     RDKit          3D

 14 14  0  0  0  0  0  0  0  0999 V2000
   38.9850   40.9860   34.2920 C   0  0  0  0  0  0  0  0  0  0  0  0
   39.7350   41.1090   35.4570 O   0  0  0  0  0  0  0  0  0  0  0  0
   38.6750   35.5880   34.2430 C   0  0  0  0  0  0  0  0  0  0  0  0
   38.6630   34.3330   34.8790 N   0  0  0  0  0  0  0  0  0  0  0  0
   37.5700   40.9700   34.4080 O   0  0  0  0  0  0  0  0  0  0  0  0
   38.0910   36.8140   32.3100 C   0  0  0  0  0  0  0  0  0  0  0  0
   38.5670   38.8230   33.4370 C   0  0  0  0  0  0  0  0  0  0  0  0
   36.6120   33.3470   35.0920 O   0  0  0  0  0  0  0  0  0  0  0  0
   37.7590   33.8380   37.0960 C   0  0  0  0  0  0  0  0  0  0  0  0
   38.0080   37.7300   33.5530 C   0  0  0  0  0  0  0  0  0  0  0  0
   37.6440   33.8230   35.6020 C   0  0  0  0  0  0  0  0  0  0  0  0
   37.9180   36.7910   34.7580 C   0  0  0  0  0  0  0  0  0  0  0  0
   39.3880   39.8160   33.4120 C   0  0  0  0  0  0  0  0  0  0  0  0
   38.3590   35.5700   32.7640 C   0  0  0  0  0  0  0  0  0  0  0  0
  1  5  1  0
  1  2  1  0
  3 12  1  0
  3  4  1  0
  4 11  1  0
  6 14  1  0
  6 10  1  0
  8 11  2  0
 10  7  1  0
 10 12  1  0
 11  9  1  0
 13  7  1  0
 13  1  1  0
 14  3  1  0
M  END
$$$$

     RDKit          3D

 21 22  0  0  0  0  0  0  0  0999 V2000
   44.6030   43.7410   33.1440 C   0  0  0  0  0  0  0  0  0  0  0  0
   38.2780   36.9390   30.8850 S   0  0  0  0  0  0  0  0  0  0  0  0
   39.0690   35.9340   30.2050 O   0  0  0  0  0  0  0  0  0  0  0  0
   41.0670   42.0670   33.3770 C   0  0  0  0  0  0  0  0  0  0  0  0
   44.0790   42.3300   31.1870 C   0  0  0  0  0  0  0  0  0  0  0  0
   38.9260   37.5950   32.2790 C   0  0  0  0  0  0  0  0  0  0  0  0
   39.6010   38.8070   32.2660 C   0  0  0  0  0  0  0  0  0  0  0  0
   43.3980   42.8090   34.9530 O   0  0  0  0  0  0  0  0  0  0  0  0
   36.9000   35.9310   31.5040 C   0  0  0  0  0  0  0  0  0  0  0  0
   40.2400   43.0240   33.6570 O   0  0  0  0  0  0  0  0  0  0  0  0
   37.5640   37.9820   30.1340 O   0  0  0  0  0  0  0  0  0  0  0  0
   43.1840   43.3690   33.6020 C   0  0  0  0  0  0  0  0  0  0  0  0
   39.1710   37.5480   34.6800 C   0  0  0  0  0  0  0  0  0  0  0  0
   36.8750   35.1640   32.4500 O   0  0  0  0  0  0  0  0  0  0  0  0
   39.6650   38.8440   34.6410 C   0  0  0  0  0  0  0  0  0  0  0  0
   42.4580   42.3960   33.0330 C   0  0  0  0  0  0  0  0  0  0  0  0
   38.8290   36.9300   33.4970 C   0  0  0  0  0  0  0  0  0  0  0  0
   40.7510   40.6590   33.4760 C   0  0  0  0  0  0  0  0  0  0  0  0
   44.9180   43.3210   31.7300 C   0  0  0  0  0  0  0  0  0  0  0  0
   39.9690   39.4410   33.4530 C   0  0  0  0  0  0  0  0  0  0  0  0
   42.9080   41.8480   31.7790 C   0  0  0  0  0  0  0  0  0  0  0  0
  1 12  1  0
  2  9  1  0
  2  6  1  0
  3  2  2  0
  4 18  2  0
  4 10  1  0
  5 19  1  0
  5 21  2  0
  6 17  2  0
  7  6  1  0
  7 20  1  0
  9 14  2  0
 11  2  2  0
 12  8  1  0
 15 13  2  0
 16  4  1  0
 16 12  2  0
 17 13  1  0
 19  1  2  0
 20 18  2  0
 20 15  1  0
 21 16  1  0
M  END
$$$$

     RDKit          3D

  3  2  0  0  0  0  0  0  0  0999 V2000
   39.3090   40.7910   31.1370 N   0  0  0  0  0  0  0  0  0  0  0  0
   38.6970   39.5800   30.5940 C   0  0  0  0  0  0  0  0  0  0  0  0
   39.8450   38.3830   30.2570 Cl  0  0  0  0  0  0  0  0  0  0  0  0
  2  1  1  0
  3  2  1  0
M  END
$$$$

     RDKit          3D

 29 32  0  0  0  0  0  0  0  0999 V2000
   32.3510   35.2400   33.6210 O   0  0  0  0  0  0  0  0  0  0  0  0
   36.7170   36.6610   32.1590 C   0  0  0  0  0  0  0  0  0  0  0  0
   36.7550   35.3350   34.2380 C   0  0  0  0  0  0  0  0  0  0  0  0
   34.7290   34.0690   35.3360 C   0  0  0  0  0  0  0  0  0  0  0  0
   44.9340   43.2620   36.1380 C   0  0  0  0  0  0  0  0  0  0  0  0
   41.3140   39.1900   32.1780 S   0  0  0  0  0  0  0  0  0  0  0  0
   43.4580   42.9640   36.4460 C   0  0  0  0  0  0  0  0  0  0  0  0
   34.4980   35.5610   32.4460 C   0  0  0  0  0  0  0  0  0  0  0  0
   38.6170   36.8400   30.2330 C   0  0  0  0  0  0  0  0  0  0  0  0
   32.7570   34.8390   31.5300 O   0  0  0  0  0  0  0  0  0  0  0  0
   39.5010   40.0610   33.9120 C   0  0  0  0  0  0  0  0  0  0  0  0
   40.6980   40.9160   34.1980 C   0  0  0  0  0  0  0  0  0  0  0  0
   44.7280   43.3960   34.5370 C   0  0  0  0  0  0  0  0  0  0  0  0
   43.6610   42.3070   34.2470 C   0  0  0  0  0  0  0  0  0  0  0  0
   35.4480   36.3420   31.7680 C   0  0  0  0  0  0  0  0  0  0  0  0
   34.5170   35.6080   33.7660 C   0  0  0  0  0  0  0  0  0  0  0  0
   37.5480   37.7410   31.2890 S   0  0  0  0  0  0  0  0  0  0  0  0
   33.6320   34.8360   36.0790 F   0  0  0  0  0  0  0  0  0  0  0  0
   37.3260   35.8920   33.1830 C   0  0  0  0  0  0  0  0  0  0  0  0
   43.3840   42.3620   37.8830 C   0  0  0  0  0  0  0  0  0  0  0  0
   39.5930   39.2830   32.8240 C   0  0  0  0  0  0  0  0  0  0  0  0
   35.6830   33.8060   36.4900 C   0  0  0  0  0  0  0  0  0  0  0  0
   36.7710   38.6300   30.6200 O   0  0  0  0  0  0  0  0  0  0  0  0
   33.0600   35.4520   32.6290 C   0  0  0  0  0  0  0  0  0  0  0  0
   41.7830   40.6280   33.2020 C   0  0  0  0  0  0  0  0  0  0  0  0
   38.5880   38.3710   32.4900 N   0  0  0  0  0  0  0  0  0  0  0  0
   42.8810   42.2080   35.4480 N   0  0  0  0  0  0  0  0  0  0  0  0
   35.3560   35.0980   34.4920 C   0  0  0  0  0  0  0  0  0  0  0  0
   42.9890   41.5850   33.0020 C   0  0  0  0  0  0  0  0  0  0  0  0
  2 17  1  0
  2 19  1  0
  3 28  1  0
  4 18  1  0
  4 22  1  0
  5  7  1  0
  6 21  1  0
  6 25  1  0
  7 20  1  0
  8 15  1  0
  8 24  1  0
  8 16  1  0
 10 24  1  0
 11 12  1  0
 13  5  1  0
 14 13  1  0
 14 27  1  0
 15  2  1  0
 16 24  1  0
 16 28  1  0
 17  9  1  0
 17 26  1  0
 19  3  1  0
 21 11  2  0
 23 17  1  0
 24  1  1  0
 25 29  1  0
 25 12  1  0
 26 21  1  0
 27  7  1  0
 28  4  1  0
 29 14  2  3
M  END
$$$$

     RDKit          3D

 13 12  0  0  0  0  0  0  0  0999 V2000
   35.0850   36.4820   33.2280 C   0  0  0  0  0  0  0  0  0  0  0  0
   40.2420   41.0950   31.5110 O   0  0  0  0  0  0  0  0  0  0  0  0
   39.1520   37.9210   32.3180 C   0  0  0  0  0  0  0  0  0  0  0  0
   39.5660   38.0620   29.8970 O   0  0  0  0  0  0  0  0  0  0  0  0
   34.6530   35.7480   34.1160 O   0  0  0  0  0  0  0  0  0  0  0  0
   36.6270   37.5020   31.6400 C   0  0  0  0  0  0  0  0  0  0  0  0
   38.3970   39.0870   31.7420 C   0  0  0  0  0  0  0  0  0  0  0  0
   40.2560   40.1730   30.4780 C   0  0  0  0  0  0  0  0  0  0  0  0
   36.9240   38.7680   31.6660 C   0  0  0  0  0  0  0  0  0  0  0  0
   36.5260   36.6560   32.8870 C   0  0  0  0  0  0  0  0  0  0  0  0
   39.0270   39.3000   30.3680 C   0  0  0  0  0  0  0  0  0  0  0  0
   38.4550   40.1710   32.6340 O   0  0  0  0  0  0  0  0  0  0  0  0
   34.2580   36.9660   32.4600 O   0  0  0  0  0  0  0  0  0  0  0  0
  1  5  1  0
  6  9  1  0
  6 10  1  0
  7  3  1  0
  7 12  1  0
  8  2  1  0
  9  7  1  0
 10  1  1  0
 11  4  1  0
 11  8  1  0
 11  7  1  0
 13  1  2  0
M  END
$$$$

     RDKit          3D

  8  8  0  0  0  0  0  0  0  0999 V2000
   39.9570   40.5280   30.2180 C   0  0  0  0  0  0  0  0  0  0  0  0
   39.3130   41.6750   30.8910 N   0  0  0  0  0  0  0  0  0  0  0  0
   39.4300   43.1140   31.1090 O   0  0  0  0  0  0  0  0  0  0  0  0
   40.1430   39.4460   28.2550 O   0  0  0  0  0  0  0  0  0  0  0  0
   39.5720   41.6820   28.1250 C   0  0  0  0  0  0  0  0  0  0  0  0
   39.3270   40.3500   28.9030 C   0  0  0  0  0  0  0  0  0  0  0  0
   38.4610   42.3580   30.6910 C   0  0  0  0  0  0  0  0  0  0  0  0
   37.4250   42.3480   30.3630 O   0  0  0  0  0  0  0  0  0  0  0  0
  1  2  1  0
  2  3  1  0
  4  6  1  0
  6  5  1  0
  6  1  1  0
  7  2  1  0
  7  3  1  0
  8  7  2  0
M  END
$$$$

     RDKit          3D

  9  9  0  0  0  0  0  0  0  0999 V2000
   37.4210   39.0110   31.6150 C   0  0  0  0  0  0  0  0  0  0  0  0
   38.5200   41.3150   30.8190 Cl  0  0  0  0  0  0  0  0  0  0  0  0
   39.5610   37.5010   30.8350 C   0  0  0  0  0  0  0  0  0  0  0  0
   38.7800   37.1180   31.9090 C   0  0  0  0  0  0  0  0  0  0  0  0
   36.5000   37.4480   32.9790 N   0  0  0  0  0  0  0  0  0  0  0  0
   35.7000   39.6860   31.7200 Br  0  0  0  0  0  0  0  0  0  0  0  0
   39.5120   38.8480   30.3830 C   0  0  0  0  0  0  0  0  0  0  0  0
   37.6080   37.8290   32.2730 C   0  0  0  0  0  0  0  0  0  0  0  0
   38.5450   39.5880   31.0220 C   0  0  0  0  0  0  0  0  0  0  0  0
  1  6  1  0
  1  8  1  0
  3  4  1  0
  4  8  1  0
  7  3  1  0
  7  9  1  0
  8  5  1  0
  9  2  1  0
  9  1  1  0
M  END
$$$$

     RDKit          3D

 12 11  0  0  0  0  0  0  0  0999 V2000
   35.1510   38.2500   32.2250 C   0  0  0  0  0  0  0  0  0  0  0  0
   39.3990   39.4970   28.7850 O   0  0  0  0  0  0  0  0  0  0  0  0
   37.0290   38.6220   33.7010 N   0  0  0  0  0  0  0  0  0  0  0  0
   34.3030   38.1990   33.1880 O   0  0  0  0  0  0  0  0  0  0  0  0
   37.1070   39.6710   31.5270 C   0  0  0  0  0  0  0  0  0  0  0  0
   36.3470   38.9640   32.4020 C   0  0  0  0  0  0  0  0  0  0  0  0
   39.2400   40.4730   30.8480 C   0  0  0  0  0  0  0  0  0  0  0  0
   37.7330   40.8940   29.0140 O   0  0  0  0  0  0  0  0  0  0  0  0
   38.6650   40.2230   29.4330 C   0  0  0  0  0  0  0  0  0  0  0  0
   38.2120   40.6390   31.9980 C   0  0  0  0  0  0  0  0  0  0  0  0
   40.5020   40.8840   30.9620 N   0  0  0  0  0  0  0  0  0  0  0  0
   34.8400   37.8040   31.2040 O   0  0  0  0  0  0  0  0  0  0  0  0
  1  6  1  0
  1  4  1  0
  2  9  2  0
  5 10  1  0
  5  6  1  0
  6  3  1  0
  7 11  1  0
  7 10  1  0
  8  9  1  0
  9  7  1  0
 12  1  2  0
M  END
$$$$

     RDKit          3D

  8  7  0  0  0  0  0  0  0  0999 V2000
   39.4090   38.8510   28.7100 O   0  0  0  0  0  0  0  0  0  0  0  0
   38.7830   40.5580   31.5730 N   0  0  0  0  0  0  0  0  0  0  0  0
   39.3390   40.2080   28.6200 C   0  0  0  0  0  0  0  0  0  0  0  0
   36.8960   42.3110   30.3860 O   0  0  0  0  0  0  0  0  0  0  0  0
   36.9190   41.3140   28.6570 O   0  0  0  0  0  0  0  0  0  0  0  0
   37.5700   41.6300   29.6260 C   0  0  0  0  0  0  0  0  0  0  0  0
   39.6850   40.8430   27.6770 O   0  0  0  0  0  0  0  0  0  0  0  0
   38.7750   40.7620   30.0740 C   0  0  0  0  0  0  0  0  0  0  0  0
  3  1  1  0
  3  8  1  0
  5  6  2  0
  6  8  1  0
  6  4  1  0
  7  3  2  0
  8  2  1  0
M  END
$$$$

     RDKit          3D

 19 20  0  0  0  0  0  0  0  0999 V2000
   37.7370   36.7680   31.7060 C   0  0  0  0  0  0  0  0  0  0  0  0
   32.9630   37.6650   32.4970 N   0  0  0  0  0  0  0  0  0  0  0  0
   34.1620   37.7160   32.4160 C   0  0  0  0  0  0  0  0  0  0  0  0
   40.3250   40.4190   35.6610 N   0  0  0  0  0  0  0  0  0  0  0  0
   40.1090   41.0430   34.3830 C   0  0  0  0  0  0  0  0  0  0  0  0
   41.0390   39.1920   30.6260 S   0  0  0  0  0  0  0  0  0  0  0  0
   38.9410   37.6890   31.9900 C   0  0  0  0  0  0  0  0  0  0  0  0
   36.0510   34.9000   31.4260 C   0  0  0  0  0  0  0  0  0  0  0  0
   40.4370   39.1760   35.2870 C   0  0  0  0  0  0  0  0  0  0  0  0
   40.0580   38.9580   34.0170 N   0  0  0  0  0  0  0  0  0  0  0  0
   39.7010   38.0140   30.7580 C   0  0  0  0  0  0  0  0  0  0  0  0
   40.4780   40.0520   33.5300 N   0  0  0  0  0  0  0  0  0  0  0  0
   36.6350   38.6800   32.3660 F   0  0  0  0  0  0  0  0  0  0  0  0
   35.2470   36.8620   31.9850 C   0  0  0  0  0  0  0  0  0  0  0  0
   36.5830   37.5020   31.9810 C   0  0  0  0  0  0  0  0  0  0  0  0
   39.3490   37.8150   33.4180 C   0  0  0  0  0  0  0  0  0  0  0  0
   37.3310   35.4070   31.3470 N   0  0  0  0  0  0  0  0  0  0  0  0
   35.5740   33.6980   30.8950 N   0  0  0  0  0  0  0  0  0  0  0  0
   35.0770   35.6040   31.9390 N   0  0  0  0  0  0  0  0  0  0  0  0
  1 15  2  0
  1  7  1  0
  3  2  2  0
  5  4  1  0
  6 11  1  0
  7 11  1  0
  7 16  1  0
  8 19  1  0
  9  4  1  0
 10  9  1  0
 12 10  1  0
 12  5  1  0
 14  3  1  0
 15 14  1  0
 15 13  1  0
 16 10  1  0
 17  8  2  0
 17  1  1  0
 18  8  1  0
 19 14  1  0
M  END
$$$$

     RDKit          3D

 27 28  0  0  0  0  0  0  0  0999 V2000
   35.5230   35.4860   33.4460 C   0  0  0  0  0  0  0  0  0  0  0  0
   35.8980   36.1210   31.1440 N   0  0  0  0  0  0  0  0  0  0  0  0
   35.9950   34.8390   35.6210 C   0  0  0  0  0  0  0  0  0  0  0  0
   38.2990   38.3060   31.7340 C   0  0  0  0  0  0  0  0  0  0  0  0
   39.0340   36.8280   35.1140 O   0  0  0  0  0  0  0  0  0  0  0  0
   41.8920   42.6570   32.4030 C   0  0  0  0  0  0  0  0  0  0  0  0
   39.6580   40.5740   32.0280 C   0  0  0  0  0  0  0  0  0  0  0  0
   41.9040   40.4050   31.2410 C   0  0  0  0  0  0  0  0  0  0  0  0
   38.3150   39.4530   33.5830 O   0  0  0  0  0  0  0  0  0  0  0  0
   40.5320   39.8470   31.0670 C   0  0  0  0  0  0  0  0  0  0  0  0
   42.8800   43.0720   33.3830 O   0  0  0  0  0  0  0  0  0  0  0  0
   35.0570   35.6090   32.0860 N   0  0  0  0  0  0  0  0  0  0  0  0
   37.9690   36.5220   35.9640 C   0  0  0  0  0  0  0  0  0  0  0  0
   38.6980   39.4600   32.4470 C   0  0  0  0  0  0  0  0  0  0  0  0
   40.6550   42.7040   33.2700 C   0  0  0  0  0  0  0  0  0  0  0  0
   39.7100   41.5880   33.1160 C   0  0  0  0  0  0  0  0  0  0  0  0
   37.9090   36.5260   37.2000 O   0  0  0  0  0  0  0  0  0  0  0  0
   40.3980   43.9940   33.9720 C   0  0  0  0  0  0  0  0  0  0  0  0
   36.7130   36.7660   30.8700 C   0  0  0  0  0  0  0  0  0  0  0  0
   33.6370   35.3060   31.6020 C   0  0  0  0  0  0  0  0  0  0  0  0
   36.6060   36.2260   33.8780 C   0  0  0  0  0  0  0  0  0  0  0  0
   41.7650   41.9280   31.0350 C   0  0  0  0  0  0  0  0  0  0  0  0
   38.7390   41.6500   34.0450 O   0  0  0  0  0  0  0  0  0  0  0  0
   35.1230   34.6750   34.5180 C   0  0  0  0  0  0  0  0  0  0  0  0
   36.8780   35.9220   35.2180 C   0  0  0  0  0  0  0  0  0  0  0  0
   40.3760   38.9210   29.9320 C   0  0  0  0  0  0  0  0  0  0  0  0
   37.5010   37.8990   30.9360 C   0  0  0  0  0  0  0  0  0  0  0  0
  1 21  2  0
  1 24  1  0
  2 12  1  0
  4 14  1  0
  5 13  2  0
  6 15  1  0
  6 11  1  0
  7 14  1  0
  7 16  1  0
 10 26  1  0
 10  8  1  0
 10  7  1  0
 12  1  1  0
 13 17  1  0
 14  9  2  0
 15 18  1  0
 16 15  1  0
 16 23  1  0
 19 27  1  0
 19  2  1  0
 20 12  1  0
 21 25  1  0
 22  8  1  0
 22  6  1  0
 24  3  1  0
 25  3  2  0
 25 13  1  0
 27  4  1  0
M  END
$$$$

     RDKit          3D

 26 29  0  0  0  0  0  0  0  0999 V2000
   34.7980   35.7360   33.7260 C   0  0  0  0  0  0  0  0  0  0  0  0
   36.9060   37.2540   33.2880 C   0  0  0  0  0  0  0  0  0  0  0  0
   40.8640   42.5080   29.8220 C   0  0  0  0  0  0  0  0  0  0  0  0
   37.9230   36.5650   32.5070 N   0  0  0  0  0  0  0  0  0  0  0  0
   36.5760   33.9410   35.3430 C   0  0  0  0  0  0  0  0  0  0  0  0
   38.4610   31.9610   38.0740 N   0  0  0  0  0  0  0  0  0  0  0  0
   37.1250   35.2240   34.8290 C   0  0  0  0  0  0  0  0  0  0  0  0
   38.8850   30.7710   38.3240 C   0  0  0  0  0  0  0  0  0  0  0  0
   41.1930   41.0720   29.8980 C   0  0  0  0  0  0  0  0  0  0  0  0
   39.5140   42.9940   30.3400 C   0  0  0  0  0  0  0  0  0  0  0  0
   38.4250   41.9340   30.2840 C   0  0  0  0  0  0  0  0  0  0  0  0
   39.7350   30.1810   37.0210 C   0  0  0  0  0  0  0  0  0  0  0  0
   36.1630   36.0900   33.9950 C   0  0  0  0  0  0  0  0  0  0  0  0
   37.8370   41.2120   31.3800 N   0  0  0  0  0  0  0  0  0  0  0  0
   36.8100   39.0700   31.2610 C   0  0  0  0  0  0  0  0  0  0  0  0
   37.3010   33.1960   36.3050 C   0  0  0  0  0  0  0  0  0  0  0  0
   40.0660   40.1640   29.4620 C   0  0  0  0  0  0  0  0  0  0  0  0
   36.4730   40.5650   31.2500 C   0  0  0  0  0  0  0  0  0  0  0  0
   36.1930   38.4160   32.6250 C   0  0  0  0  0  0  0  0  0  0  0  0
   35.8600   31.3770   35.1220 C   0  0  0  0  0  0  0  0  0  0  0  0
   35.0370   38.7610   32.8950 O   0  0  0  0  0  0  0  0  0  0  0  0
   38.7660   40.4740   30.4470 C   0  0  0  0  0  0  0  0  0  0  0  0
   38.2190   39.0070   30.6650 C   0  0  0  0  0  0  0  0  0  0  0  0
   38.3560   32.6190   36.7760 C   0  0  0  0  0  0  0  0  0  0  0  0
   36.2210   32.7530   34.7730 C   0  0  0  0  0  0  0  0  0  0  0  0
   38.6330   29.7060   39.1660 C   0  0  0  0  0  0  0  0  0  0  0  0
  1 13  1  0
  2  4  1  0
  2 13  1  0
  3  9  1  0
  3 10  1  0
  5  7  1  0
  5 16  1  0
  6  8  1  0
  8 26  1  0
 11 10  1  0
 11 22  1  0
 11 14  1  0
 12  8  1  0
 13  7  2  3
 14 18  1  0
 15 19  1  0
 16 24  1  0
 17  9  1  0
 18 15  1  0
 19 21  2  0
 19  2  1  0
 22 17  1  0
 22 23  1  0
 22 14  1  0
 23 15  1  0
 24  6  1  0
 25 20  1  0
 25  5  1  0
 25 16  1  0
M  END
$$$$
