
     RDKit          3D

 10 11  0  0  0  0  0  0  0  0999 V2000
   40.0090   39.2530   28.9900 C   0  0  0  0  0  0  0  0  0  0  0  0
   40.1800   43.1470   27.7720 O   0  0  0  0  0  0  0  0  0  0  0  0
   41.4000   41.0210   28.4350 C   0  0  0  0  0  0  0  0  0  0  0  0
   39.2100   42.3380   28.4310 C   0  0  0  0  0  0  0  0  0  0  0  0
   42.4190   41.2540   26.2440 O   0  0  0  0  0  0  0  0  0  0  0  0
   41.5180   42.9300   29.6030 O   0  0  0  0  0  0  0  0  0  0  0  0
   37.9760   42.5960   28.0530 C   0  0  0  0  0  0  0  0  0  0  0  0
   41.1360   39.7820   28.2160 C   0  0  0  0  0  0  0  0  0  0  0  0
   40.9310   42.4270   28.4750 C   0  0  0  0  0  0  0  0  0  0  0  0
   41.3460   40.6330   26.9850 C   0  0  0  0  0  0  0  0  0  0  0  0
  2  4  1  0
  2  9  1  0
  3  9  1  0
  4  7  1  0
  4  9  1  0
  8  3  1  0
  8  1  1  0
  9  6  1  0
 10  5  1  0
 10  8  1  0
 10  3  1  0
M  END
$$$$

     RDKit          3D

 11 10  0  0  0  0  0  0  0  0999 V2000
   38.2850   37.4520   30.9790 O   0  0  0  0  0  0  0  0  0  0  0  0
   38.2690   40.1540   31.2570 C   0  0  0  0  0  0  0  0  0  0  0  0
   38.5460   40.5810   32.4420 O   0  0  0  0  0  0  0  0  0  0  0  0
   37.4360   35.5260   32.8590 O   0  0  0  0  0  0  0  0  0  0  0  0
   38.9560   37.3020   32.2160 C   0  0  0  0  0  0  0  0  0  0  0  0
   37.6330   38.7620   30.9070 C   0  0  0  0  0  0  0  0  0  0  0  0
   37.9420   37.7770   33.2220 C   0  0  0  0  0  0  0  0  0  0  0  0
   40.2370   37.9230   32.3020 C   0  0  0  0  0  0  0  0  0  0  0  0
   38.4710   41.0580   30.3040 O   0  0  0  0  0  0  0  0  0  0  0  0
   36.8210   36.7950   33.0200 C   0  0  0  0  0  0  0  0  0  0  0  0
   40.9070   38.7770   32.4770 O   0  0  0  0  0  0  0  0  0  0  0  0
  1  5  1  0
  2  3  1  0
  4 10  1  0
  5  8  1  0
  5  7  1  0
  6  1  1  0
  6  2  1  0
  8 11  2  0
  9  2  2  0
 10  7  1  0
M  END
$$$$

     RDKit          3D

 17 18  0  0  0  0  0  0  0  0999 V2000
   37.8490   35.9320   31.6690 C   0  0  0  0  0  0  0  0  0  0  0  0
   34.4220   35.3570   31.5360 N   0  0  0  0  0  0  0  0  0  0  0  0
   38.0500   37.8950   30.1080 C   0  0  0  0  0  0  0  0  0  0  0  0
   37.3350   40.2770   28.3670 N   0  0  0  0  0  0  0  0  0  0  0  0
   35.0520   34.7040   35.8070 C   0  0  0  0  0  0  0  0  0  0  0  0
   36.7120   35.5550   31.5110 N   0  0  0  0  0  0  0  0  0  0  0  0
   35.5340   35.0190   32.1050 C   0  0  0  0  0  0  0  0  0  0  0  0
   38.7510   36.8090   30.9250 C   0  0  0  0  0  0  0  0  0  0  0  0
   35.9740   34.4870   36.6130 C   0  0  0  0  0  0  0  0  0  0  0  0
   38.9170   38.2680   28.8650 C   0  0  0  0  0  0  0  0  0  0  0  0
   37.0890   40.1780   29.8190 C   0  0  0  0  0  0  0  0  0  0  0  0
   34.7670   34.3950   34.4470 C   0  0  0  0  0  0  0  0  0  0  0  0
   36.7350   38.7000   30.1450 C   0  0  0  0  0  0  0  0  0  0  0  0
   38.2330   39.2290   27.8610 C   0  0  0  0  0  0  0  0  0  0  0  0
   33.3920   34.0740   33.8410 C   0  0  0  0  0  0  0  0  0  0  0  0
   35.6160   35.4020   36.7070 O   0  0  0  0  0  0  0  0  0  0  0  0
   35.8210   34.7830   33.5540 C   0  0  0  0  0  0  0  0  0  0  0  0
  2  7  2  0
  3 13  1  0
  3  8  1  0
  4 11  1  0
  5 12  1  0
  5  9  1  0
  5 16  1  0
  6  1  1  0
  6  7  1  0
  7 17  1  0
  8  1  1  0
  9 16  1  0
 10  3  1  0
 11 13  1  0
 12 15  1  0
 14  4  1  0
 14 10  1  0
 17 12  1  0
M  END
$$$$

     RDKit          3D

  5  4  0  0  0  0  0  0  0  0999 V2000
   42.6460   41.8840   30.7690 P   0  0  0  0  0  0  0  0  0  0  0  0
   43.3680   42.9530   29.9770 O   0  0  0  0  0  0  0  0  0  0  0  0
   43.2670   40.5690   31.2110 O   0  0  0  0  0  0  0  0  0  0  0  0
   41.2390   41.7190   30.6020 O   0  0  0  0  0  0  0  0  0  0  0  0
   42.4770   42.8410   32.2740 O   0  0  0  0  0  0  0  0  0  0  0  0
  1  3  1  0
  1  5  1  0
  2  1  2  0
  4  1  1  0
M  END
$$$$

     RDKit          3D

 17 17  0  0  0  0  0  0  0  0999 V2000
   38.8330   39.7470   30.6240 C   0  0  0  0  0  0  0  0  0  0  0  0
   40.4950   41.2400   26.5550 C   0  0  0  0  0  0  0  0  0  0  0  0
   40.0260   41.0990   32.5360 C   0  0  0  0  0  0  0  0  0  0  0  0
   38.5070   42.1710   30.6600 C   0  0  0  0  0  0  0  0  0  0  0  0
   38.7200   37.4730   28.6630 O   0  0  0  0  0  0  0  0  0  0  0  0
   39.5560   42.5820   32.8180 C   0  0  0  0  0  0  0  0  0  0  0  0
   38.6610   39.6670   29.1890 C   0  0  0  0  0  0  0  0  0  0  0  0
   37.9420   39.2760   31.3740 O   0  0  0  0  0  0  0  0  0  0  0  0
   39.6220   43.1640   34.0840 O   0  0  0  0  0  0  0  0  0  0  0  0
   40.3960   38.4140   27.4220 O   0  0  0  0  0  0  0  0  0  0  0  0
   42.1690   39.7990   27.6800 C   0  0  0  0  0  0  0  0  0  0  0  0
   40.9590   40.5400   27.8110 C   0  0  0  0  0  0  0  0  0  0  0  0
   39.5860   40.8870   31.1060 C   0  0  0  0  0  0  0  0  0  0  0  0
   39.5300   38.6060   28.4860 C   0  0  0  0  0  0  0  0  0  0  0  0
   38.3050   42.8630   31.9730 C   0  0  0  0  0  0  0  0  0  0  0  0
   40.6540   41.4870   28.9500 C   0  0  0  0  0  0  0  0  0  0  0  0
   40.4290   41.3660   30.1720 O   0  0  0  0  0  0  0  0  0  0  0  0
  1 13  1  0
  1  8  2  0
  2 12  1  0
  3  6  1  0
  4 13  1  0
  4 15  1  0
  6  9  1  0
  7  1  1  0
 10 14  2  0
 11 12  1  0
 12 16  1  0
 13 17  1  0
 13  3  1  0
 14  5  1  0
 14  7  1  0
 15  6  1  0
 16 17  1  0
M  END
$$$$

     RDKit          3D

 29 29  0  0  0  0  0  0  0  0999 V2000
   39.7820   41.9220   25.6420 C   0  0  0  0  0  0  0  0  0  0  0  0
   38.1610   32.7420   36.5870 C   0  0  0  0  0  0  0  0  0  0  0  0
   37.3980   33.2180   35.0200 S   0  0  0  0  0  0  0  0  0  0  0  0
   41.4160   43.2160   24.6170 O   0  0  0  0  0  0  0  0  0  0  0  0
   37.3440   39.2820   30.0250 C   0  0  0  0  0  0  0  0  0  0  0  0
   37.8130   42.7980   24.3750 C   0  0  0  0  0  0  0  0  0  0  0  0
   36.7480   34.7180   37.5170 C   0  0  0  0  0  0  0  0  0  0  0  0
   36.2790   39.2400   31.1440 C   0  0  0  0  0  0  0  0  0  0  0  0
   39.1870   42.1670   24.4270 C   0  0  0  0  0  0  0  0  0  0  0  0
   37.8370   43.8560   23.4040 F   0  0  0  0  0  0  0  0  0  0  0  0
   39.2250   31.8580   37.7170 S   0  0  0  0  0  0  0  0  0  0  0  0
   39.0360   41.7750   26.6900 N   0  0  0  0  0  0  0  0  0  0  0  0
   36.7920   34.8430   35.1990 C   0  0  0  0  0  0  0  0  0  0  0  0
   41.8130   42.4810   26.9640 O   0  0  0  0  0  0  0  0  0  0  0  0
   37.5210   37.3520   33.0490 C   0  0  0  0  0  0  0  0  0  0  0  0
   38.6250   37.0310   33.5170 O   0  0  0  0  0  0  0  0  0  0  0  0
   36.6390   35.3910   36.5070 N   0  0  0  0  0  0  0  0  0  0  0  0
   38.7410   40.6470   27.1650 C   0  0  0  0  0  0  0  0  0  0  0  0
   36.2060   35.7570   34.2410 C   0  0  0  0  0  0  0  0  0  0  0  0
   41.7860   40.7510   25.1630 O   0  0  0  0  0  0  0  0  0  0  0  0
   36.6670   36.4030   33.2580 N   0  0  0  0  0  0  0  0  0  0  0  0
   37.3600   40.1520   29.0270 C   0  0  0  0  0  0  0  0  0  0  0  0
   38.9240   39.4160   27.0500 O   0  0  0  0  0  0  0  0  0  0  0  0
   37.7580   33.8380   37.6430 C   0  0  0  0  0  0  0  0  0  0  0  0
   37.3420   38.5650   32.2090 C   0  0  0  0  0  0  0  0  0  0  0  0
   34.7000   36.0340   34.6730 C   0  0  0  0  0  0  0  0  0  0  0  0
   39.7430   30.8150   37.1010 N   0  0  0  0  0  0  0  0  0  0  0  0
   41.5780   42.0360   25.6170 S   0  0  0  0  0  0  0  0  0  0  0  0
   38.1930   41.0490   28.6320 C   0  0  0  0  0  0  0  0  0  0  0  0
  1  9  1  0
  1 12  1  0
  2 24  1  0
  2 11  1  0
  3 13  1  0
  3  2  1  0
  4 28  1  0
  5  8  1  0
  6  9  1  0
  7 24  1  0
  8 25  1  0
 10  6  1  0
 12 18  1  0
 13 17  2  0
 15 21  1  0
 15 16  2  0
 17  7  1  0
 18 29  1  0
 19 26  1  0
 19 13  1  0
 20 28  1  0
 21 19  1  0
 22  5  1  0
 23 18  2  0
 25 15  1  0
 27 11  1  0
 28  1  1  0
 28 14  1  0
 29 22  1  0
M  END
$$$$

     RDKit          3D

 12 11  0  0  0  0  0  0  0  0999 V2000
   39.8930   39.3690   26.6660 C   0  0  0  0  0  0  0  0  0  0  0  0
   40.1850   39.5420   25.7940 N   0  0  0  0  0  0  0  0  0  0  0  0
   37.9980   39.5450   30.6380 C   0  0  0  0  0  0  0  0  0  0  0  0
   38.3310   40.4140   31.7290 C   0  0  0  0  0  0  0  0  0  0  0  0
   39.1950   41.3210   31.7770 C   0  0  0  0  0  0  0  0  0  0  0  0
   41.0510   41.9070   33.1660 C   0  0  0  0  0  0  0  0  0  0  0  0
   41.6690   43.0480   33.8860 C   0  0  0  0  0  0  0  0  0  0  0  0
   39.7930   41.8040   32.9740 C   0  0  0  0  0  0  0  0  0  0  0  0
   37.5960   40.0260   29.4160 C   0  0  0  0  0  0  0  0  0  0  0  0
   38.5110   40.2430   28.3760 N   0  0  0  0  0  0  0  0  0  0  0  0
   38.2950   38.1210   27.6030 O   0  0  0  0  0  0  0  0  0  0  0  0
   39.1350   39.1310   27.8790 C   0  0  0  0  0  0  0  0  0  0  0  0
  1 12  1  0
  2  1  3  0
  3  4  1  0
  4  5  1  0
  5  8  1  0
  6  7  1  0
  8  6  1  0
  9  3  1  0
 10  9  1  0
 12 11  1  0
 12 10  1  0
M  END
$$$$

     RDKit          3D

  9  9  0  0  0  0  0  0  0  0999 V2000
   37.3770   40.6570   31.3800 C   0  0  0  0  0  0  0  0  0  0  0  0
   37.4910   37.9950   30.2620 O   0  0  0  0  0  0  0  0  0  0  0  0
   39.9160   39.3260   28.3080 C   0  0  0  0  0  0  0  0  0  0  0  0
   41.0100   39.1790   27.5880 N   0  0  0  0  0  0  0  0  0  0  0  0
   38.4370   38.8060   30.0880 C   0  0  0  0  0  0  0  0  0  0  0  0
   38.5780   40.3370   30.4770 C   0  0  0  0  0  0  0  0  0  0  0  0
   39.3910   38.4000   29.1140 N   0  0  0  0  0  0  0  0  0  0  0  0
   38.1800   41.0300   29.1460 C   0  0  0  0  0  0  0  0  0  0  0  0
   38.8810   40.5350   27.9260 C   0  0  0  0  0  0  0  0  0  0  0  0
  3  7  1  0
  4  3  2  0
  5  2  2  0
  5  6  1  0
  6  1  1  0
  7  5  1  0
  8  6  1  0
  9  3  1  0
  9  8  1  0
M  END
$$$$

     RDKit          3D

 12 13  0  0  0  0  0  0  0  0999 V2000
   36.9470   37.7860   31.2860 C   0  0  0  0  0  0  0  0  0  0  0  0
   34.4900   35.2450   32.3720 C   0  0  0  0  0  0  0  0  0  0  0  0
   33.8930   34.1450   32.1440 N   0  0  0  0  0  0  0  0  0  0  0  0
   35.7800   37.0170   31.2590 C   0  0  0  0  0  0  0  0  0  0  0  0
   33.7060   36.0520   33.2360 C   0  0  0  0  0  0  0  0  0  0  0  0
   35.7230   35.6300   31.7240 C   0  0  0  0  0  0  0  0  0  0  0  0
   35.7310   39.7940   30.5480 C   0  0  0  0  0  0  0  0  0  0  0  0
   33.0170   35.1580   34.1010 C   0  0  0  0  0  0  0  0  0  0  0  0
   36.9370   39.1380   30.9160 C   0  0  0  0  0  0  0  0  0  0  0  0
   34.5530   37.7130   30.8140 C   0  0  0  0  0  0  0  0  0  0  0  0
   33.0250   33.8070   32.9910 N   0  0  0  0  0  0  0  0  0  0  0  0
   34.5820   39.0720   30.6090 C   0  0  0  0  0  0  0  0  0  0  0  0
  2  6  1  0
  2  5  1  0
  3  2  1  0
  3 11  1  0
  4  1  1  0
  4  6  1  0
  5  8  1  0
  7 12  2  0
  7  9  1  0
  9  1  2  0
 10  4  2  0
 11  8  1  0
 12 10  1  0
M  END
$$$$

     RDKit          3D

 10  9  0  0  0  0  0  0  0  0999 V2000
   37.9330   38.2760   30.8840 N   0  0  0  0  0  0  0  0  0  0  0  0
   39.9040   38.9620   26.4080 O   0  0  0  0  0  0  0  0  0  0  0  0
   37.8720   39.8420   27.7380 C   0  0  0  0  0  0  0  0  0  0  0  0
   38.7700   39.6390   28.9280 C   0  0  0  0  0  0  0  0  0  0  0  0
   39.7840   37.4100   28.1340 O   0  0  0  0  0  0  0  0  0  0  0  0
   39.2760   38.2490   29.0660 C   0  0  0  0  0  0  0  0  0  0  0  0
   39.5650   40.9780   26.4900 O   0  0  0  0  0  0  0  0  0  0  0  0
   36.9850   41.0240   27.7510 O   0  0  0  0  0  0  0  0  0  0  0  0
   39.1440   37.6860   30.4890 C   0  0  0  0  0  0  0  0  0  0  0  0
   38.7820   39.8150   26.5100 C   0  0  0  0  0  0  0  0  0  0  0  0
  2 10  1  0
  3  8  1  0
  3  4  1  0
  4  6  1  0
  6  5  1  0
  6  9  1  0
  7 10  1  0
  9  1  1  0
 10  3  1  0
M  END
$$$$

     RDKit          3D

 18 19  0  0  0  0  0  0  0  0999 V2000
   35.8960   35.8740   31.4550 C   0  0  0  0  0  0  0  0  0  0  0  0
   34.9890   33.9010   33.1280 C   0  0  0  0  0  0  0  0  0  0  0  0
   36.5440   34.6250   31.4370 C   0  0  0  0  0  0  0  0  0  0  0  0
   41.4350   39.6530   29.3880 O   0  0  0  0  0  0  0  0  0  0  0  0
   35.9060   33.5810   32.0820 C   0  0  0  0  0  0  0  0  0  0  0  0
   34.7230   36.0320   32.1390 C   0  0  0  0  0  0  0  0  0  0  0  0
   37.7280   37.1980   30.0560 C   0  0  0  0  0  0  0  0  0  0  0  0
   38.9040   39.9950   27.8480 C   0  0  0  0  0  0  0  0  0  0  0  0
   42.5180   39.4120   27.5610 O   0  0  0  0  0  0  0  0  0  0  0  0
   37.9380   39.6710   27.0600 O   0  0  0  0  0  0  0  0  0  0  0  0
   37.4530   39.9210   29.6510 N   0  0  0  0  0  0  0  0  0  0  0  0
   37.1360   38.5900   29.9180 C   0  0  0  0  0  0  0  0  0  0  0  0
   40.2590   39.7690   27.2970 C   0  0  0  0  0  0  0  0  0  0  0  0
   38.7870   40.1830   29.2740 C   0  0  0  0  0  0  0  0  0  0  0  0
   35.8310   38.4370   30.8670 S   0  0  0  0  0  0  0  0  0  0  0  0
   34.1860   35.0260   32.9370 C   0  0  0  0  0  0  0  0  0  0  0  0
   36.5740   37.0200   31.0510 C   0  0  0  0  0  0  0  0  0  0  0  0
   41.3380   39.5440   28.1840 C   0  0  0  0  0  0  0  0  0  0  0  0
  1  6  1  0
  3  1  2  0
  3  5  1  0
  5  2  2  0
  6 16  2  0
  7 17  1  0
  8 10  1  0
  8 14  1  0
  9 18  2  0
 12 11  1  0
 12  7  1  0
 12 15  1  0
 13  8  1  0
 13 18  1  0
 14 11  1  0
 15 17  1  0
 16  2  1  0
 17  1  1  0
 18  4  1  0
M  END
$$$$

     RDKit          3D

  7  8  0  0  0  0  0  0  0  0999 V2000
   40.8430   40.3080   28.8880 O   0  0  0  0  0  0  0  0  0  0  0  0
   41.4230   43.7790   29.4390 O   0  0  0  0  0  0  0  0  0  0  0  0
   43.1620   40.6940   28.9060 C   0  0  0  0  0  0  0  0  0  0  0  0
   42.3220   41.7690   29.6110 C   0  0  0  0  0  0  0  0  0  0  0  0
   41.1030   41.5510   29.4940 C   0  0  0  0  0  0  0  0  0  0  0  0
   42.0970   39.8320   28.2900 C   0  0  0  0  0  0  0  0  0  0  0  0
   41.3890   42.6270   28.5150 C   0  0  0  0  0  0  0  0  0  0  0  0
  4  3  1  0
  5  1  1  0
  5  4  1  0
  6  1  1  0
  6  3  1  0
  7  2  1  0
  7  5  1  0
  7  4  1  0
M  END
$$$$

     RDKit          3D

 13 12  0  0  0  0  0  0  0  0999 V2000
   38.0400   35.6230   32.2030 C   0  0  0  0  0  0  0  0  0  0  0  0
   37.6510   40.1800   30.9420 C   0  0  0  0  0  0  0  0  0  0  0  0
   38.4720   41.1930   30.3530 O   0  0  0  0  0  0  0  0  0  0  0  0
   38.8680   38.4720   33.8080 C   0  0  0  0  0  0  0  0  0  0  0  0
   38.1180   38.8050   31.2780 C   0  0  0  0  0  0  0  0  0  0  0  0
   39.1750   36.5280   32.4290 C   0  0  0  0  0  0  0  0  0  0  0  0
   39.0290   37.0310   33.8800 C   0  0  0  0  0  0  0  0  0  0  0  0
   38.6890   38.9120   32.6230 C   0  0  0  0  0  0  0  0  0  0  0  0
   39.6140   40.5310   28.4860 O   0  0  0  0  0  0  0  0  0  0  0  0
   39.1170   42.9290   27.0780 C   0  0  0  0  0  0  0  0  0  0  0  0
   39.0590   41.4090   29.0340 C   0  0  0  0  0  0  0  0  0  0  0  0
   39.6270   36.2180   34.5620 O   0  0  0  0  0  0  0  0  0  0  0  0
   38.5200   42.5580   28.3800 N   0  0  0  0  0  0  0  0  0  0  0  0
  1  6  1  0
  2  5  1  0
  3  2  1  0
  4  7  1  0
  5  8  1  0
  6  7  1  0
  7 12  2  0
  8  4  1  0
  9 11  2  0
 10 13  1  0
 11  3  1  0
 13 11  1  0
M  END
$$$$

     RDKit          3D

  9  8  0  0  0  0  0  0  0  0999 V2000
   36.8360   42.3680   26.9120 C   0  0  0  0  0  0  0  0  0  0  0  0
   38.6320   42.5370   27.4640 S   0  0  0  0  0  0  0  0  0  0  0  0
   40.0760   39.0060   29.0430 O   0  0  0  0  0  0  0  0  0  0  0  0
   40.0600   40.3940   25.9270 O   0  0  0  0  0  0  0  0  0  0  0  0
   39.3240   40.8310   26.4360 C   0  0  0  0  0  0  0  0  0  0  0  0
   38.7320   37.8870   27.8300 O   0  0  0  0  0  0  0  0  0  0  0  0
   38.5200   40.1200   27.6210 C   0  0  0  0  0  0  0  0  0  0  0  0
   40.8150   39.1430   25.6430 C   0  0  0  0  0  0  0  0  0  0  0  0
   39.1650   38.9090   28.1480 C   0  0  0  0  0  0  0  0  0  0  0  0
  1  2  1  0
  4  5  1  0
  5  2  1  0
  5  7  1  0
  6  9  2  0
  7  9  1  0
  8  4  1  0
  9  3  1  0
M  END
$$$$

     RDKit          3D

 20 20  0  0  0  0  0  0  0  0999 V2000
   41.3270   39.5800   30.6130 C   0  0  0  0  0  0  0  0  0  0  0  0
   40.3310   38.5570   26.8290 O   0  0  0  0  0  0  0  0  0  0  0  0
   36.8350   32.8550   31.1990 C   0  0  0  0  0  0  0  0  0  0  0  0
   35.7690   36.0790   32.2010 C   0  0  0  0  0  0  0  0  0  0  0  0
   34.8300   36.5690   32.9950 C   0  0  0  0  0  0  0  0  0  0  0  0
   38.6290   40.1240   26.7070 C   0  0  0  0  0  0  0  0  0  0  0  0
   33.7900   35.5760   33.5220 C   0  0  0  0  0  0  0  0  0  0  0  0
   37.1270   32.5050   30.2580 O   0  0  0  0  0  0  0  0  0  0  0  0
   39.0150   39.3740   29.6150 C   0  0  0  0  0  0  0  0  0  0  0  0
   35.9100   33.6060   31.9460 C   0  0  0  0  0  0  0  0  0  0  0  0
   37.2190   38.0290   30.8500 C   0  0  0  0  0  0  0  0  0  0  0  0
   33.9030   34.2110   33.2710 C   0  0  0  0  0  0  0  0  0  0  0  0
   36.7190   37.2920   31.9130 C   0  0  0  0  0  0  0  0  0  0  0  0
   39.6980   39.4690   27.3390 C   0  0  0  0  0  0  0  0  0  0  0  0
   32.9130   36.2790   34.3200 O   0  0  0  0  0  0  0  0  0  0  0  0
   39.9730   39.9830   28.7080 C   0  0  0  0  0  0  0  0  0  0  0  0
   41.3230   39.4290   29.1260 C   0  0  0  0  0  0  0  0  0  0  0  0
   38.3720   39.2680   31.3270 S   0  0  0  0  0  0  0  0  0  0  0  0
   35.8540   35.0000   31.4520 O   0  0  0  0  0  0  0  0  0  0  0  0
   34.4070   34.7280   34.5400 N   0  0  0  0  0  0  0  0  0  0  0  0
  2 14  2  0
  3 10  1  0
  4 13  1  0
  4  5  1  0
  5  7  1  0
  6 14  1  0
  7 15  1  0
  7 20  1  0
  8  3  2  0
  9 18  1  0
 11 18  1  0
 11 13  1  0
 12  7  1  0
 12 20  1  0
 14 16  1  0
 16 17  1  0
 16  9  1  0
 17  1  1  0
 19 10  1  0
 19  4  1  0
M  END
$$$$

     RDKit          3D

 14 14  0  0  0  0  0  0  0  0999 V2000
   38.6060   41.2020   30.2950 C   0  0  0  0  0  0  0  0  0  0  0  0
   37.1190   42.7210   29.2660 O   0  0  0  0  0  0  0  0  0  0  0  0
   38.8980   41.0620   28.8630 O   0  0  0  0  0  0  0  0  0  0  0  0
   41.0550   40.0610   29.1380 O   0  0  0  0  0  0  0  0  0  0  0  0
   39.6430   39.8210   28.4430 S   0  0  0  0  0  0  0  0  0  0  0  0
   37.0210   39.0560   30.0000 C   0  0  0  0  0  0  0  0  0  0  0  0
   39.9800   39.2450   27.1920 O   0  0  0  0  0  0  0  0  0  0  0  0
   36.8140   38.7440   31.4080 O   0  0  0  0  0  0  0  0  0  0  0  0
   34.9580   40.0940   29.3040 O   0  0  0  0  0  0  0  0  0  0  0  0
   38.9420   40.3710   31.3240 O   0  0  0  0  0  0  0  0  0  0  0  0
   39.0130   37.8570   29.0620 O   0  0  0  0  0  0  0  0  0  0  0  0
   38.2270   38.9170   29.0260 C   0  0  0  0  0  0  0  0  0  0  0  0
   36.2620   40.4020   29.7660 C   0  0  0  0  0  0  0  0  0  0  0  0
   37.0960   41.5950   30.2160 C   0  0  0  0  0  0  0  0  0  0  0  0
  1 10  1  0
  3  1  1  0
  5  3  1  0
  5 12  1  0
  5  4  1  0
  6  8  1  0
  7  5  1  0
 12 11  2  0
 12  6  1  0
 13  9  1  0
 13  6  1  0
 13 14  1  0
 14  2  1  0
 14  1  1  0
M  END
$$$$

     RDKit          3D

 12 12  0  0  0  0  0  0  0  0999 V2000
   39.8540   37.4830   34.4390 O   0  0  0  0  0  0  0  0  0  0  0  0
   40.2590   41.7320   31.3740 C   0  0  0  0  0  0  0  0  0  0  0  0
   40.7660   38.1090   32.5180 O   0  0  0  0  0  0  0  0  0  0  0  0
   40.6780   42.8120   28.7780 O   0  0  0  0  0  0  0  0  0  0  0  0
   39.5190   40.3080   32.0330 C   0  0  0  0  0  0  0  0  0  0  0  0
   39.5200   42.3360   29.8350 P   0  0  0  0  0  0  0  0  0  0  0  0
   38.3910   41.4380   29.3250 O   0  0  0  0  0  0  0  0  0  0  0  0
   38.8080   43.8720   30.0980 O   0  0  0  0  0  0  0  0  0  0  0  0
   38.7590   39.2130   34.6180 O   0  0  0  0  0  0  0  0  0  0  0  0
   41.2130   41.3760   31.2050 O   0  0  0  0  0  0  0  0  0  0  0  0
   40.4330   39.4080   32.8150 C   0  0  0  0  0  0  0  0  0  0  0  0
   39.7660   38.5030   33.7180 C   0  0  0  0  0  0  0  0  0  0  0  0
  2 10  1  0
  2  5  1  0
  3 11  1  0
  3 12  1  0
  4  6  2  0
  6  8  1  0
  6  2  1  0
  7  6  1  0
 11  5  1  0
 11 12  1  0
 12  1  1  0
 12  9  1  0
M  END
$$$$

     RDKit          3D

  8  7  0  0  0  0  0  0  0  0999 V2000
   39.6910   42.1800   27.4500 C   0  0  0  0  0  0  0  0  0  0  0  0
   41.2670   40.3920   28.3660 C   0  0  0  0  0  0  0  0  0  0  0  0
   38.3820   42.5040   28.1230 C   0  0  0  0  0  0  0  0  0  0  0  0
   41.2080   38.9970   28.8160 N   0  0  0  0  0  0  0  0  0  0  0  0
   40.2740   40.0950   26.0560 C   0  0  0  0  0  0  0  0  0  0  0  0
   38.0480   43.7650   28.1720 O   0  0  0  0  0  0  0  0  0  0  0  0
   37.9980   41.8810   29.2800 O   0  0  0  0  0  0  0  0  0  0  0  0
   40.0620   40.6460   27.4790 C   0  0  0  0  0  0  0  0  0  0  0  0
  1  8  1  0
  1  3  1  0
  2  4  1  0
  3  6  2  0
  3  7  1  0
  8  5  1  0
  8  2  1  0
M  END
$$$$

     RDKit          3D

 11 11  0  0  0  0  0  0  0  0999 V2000
   40.3790   42.3430   32.1030 O   0  0  0  0  0  0  0  0  0  0  0  0
   39.0280   41.8650   30.0800 C   0  0  0  0  0  0  0  0  0  0  0  0
   40.0730   41.2650   29.3320 O   0  0  0  0  0  0  0  0  0  0  0  0
   37.6570   41.1520   29.9110 C   0  0  0  0  0  0  0  0  0  0  0  0
   39.3360   41.6700   31.4670 C   0  0  0  0  0  0  0  0  0  0  0  0
   37.2360   39.2340   28.1950 C   0  0  0  0  0  0  0  0  0  0  0  0
   38.0720   38.0370   28.2380 O   0  0  0  0  0  0  0  0  0  0  0  0
   38.0080   40.3070   28.7370 C   0  0  0  0  0  0  0  0  0  0  0  0
   38.3090   41.7670   32.3210 O   0  0  0  0  0  0  0  0  0  0  0  0
   40.1180   39.6510   27.6790 O   0  0  0  0  0  0  0  0  0  0  0  0
   39.4820   40.1830   28.6910 C   0  0  0  0  0  0  0  0  0  0  0  0
  2  5  1  0
  3  2  1  0
  4  2  1  0
  5  1  1  0
  5  9  1  0
  6  7  1  0
  8  6  1  0
  8  4  1  0
 10 11  2  0
 11  8  1  0
 11  3  1  0
M  END
$$$$

     RDKit          3D

 13 12  0  0  0  0  0  0  0  0999 V2000
   38.3290   37.0730   35.2290 C   0  0  0  0  0  0  0  0  0  0  0  0
   41.9510   39.2900   30.5790 C   0  0  0  0  0  0  0  0  0  0  0  0
   42.6980   40.5480   30.1320 C   0  0  0  0  0  0  0  0  0  0  0  0
   38.7770   39.0430   33.8230 C   0  0  0  0  0  0  0  0  0  0  0  0
   40.6270   40.1010   32.5630 C   0  0  0  0  0  0  0  0  0  0  0  0
   42.8860   41.4850   30.9420 O   0  0  0  0  0  0  0  0  0  0  0  0
   37.7650   35.6080   35.0160 C   0  0  0  0  0  0  0  0  0  0  0  0
   39.2500   38.2340   34.9480 C   0  0  0  0  0  0  0  0  0  0  0  0
   38.4770   37.1610   36.8730 C   0  0  0  0  0  0  0  0  0  0  0  0
   40.7200   39.7430   31.0780 N   0  0  0  0  0  0  0  0  0  0  0  0
   40.4730   41.0740   33.7410 N   0  0  0  0  0  0  0  0  0  0  0  0
   42.9580   40.6430   28.9190 O   0  0  0  0  0  0  0  0  0  0  0  0
   39.4740   39.1130   32.7230 C   0  0  0  0  0  0  0  0  0  0  0  0
  1  9  1  0
  2 10  1  0
  3  2  1  0
  3  6  1  0
  4  8  1  0
  5 13  1  0
  5 11  2  0
  7  1  1  0
  8  1  1  0
 10  5  1  0
 12  3  2  0
 13  4  1  0
M  END
$$$$
