
     RDKit          3D

  9  9  0  0  0  0  0  0  0  0999 V2000
   37.3700   35.2610   33.4790 C   0  0  0  0  0  0  0  0  0  0  0  0
   36.2250   34.5060   33.9120 C   0  0  0  0  0  0  0  0  0  0  0  0
   39.4140   34.6140   33.2020 C   0  0  0  0  0  0  0  0  0  0  0  0
   38.3260   34.2550   33.6140 N   0  0  0  0  0  0  0  0  0  0  0  0
   37.4500   36.6110   32.9090 C   0  0  0  0  0  0  0  0  0  0  0  0
   39.8610   35.9290   32.9420 C   0  0  0  0  0  0  0  0  0  0  0  0
   39.0930   38.1540   31.9670 O   0  0  0  0  0  0  0  0  0  0  0  0
   41.5270   36.4300   32.7360 Cl  0  0  0  0  0  0  0  0  0  0  0  0
   38.8570   37.1310   32.5380 C   0  0  0  0  0  0  0  0  0  0  0  0
  1  4  2  0
  1  2  1  0
  3  4  1  0
  5  1  1  0
  6  8  1  0
  6  3  1  0
  7  9  2  0
  9  5  1  0
  9  6  1  0
M  END
$$$$

     RDKit          3D

 11 11  0  0  0  0  0  0  0  0999 V2000
   41.0780   35.9680   32.8760 O   0  0  0  0  0  0  0  0  0  0  0  0
   42.4550   37.9910   33.1270 C   0  0  0  0  0  0  0  0  0  0  0  0
   42.9850   38.5480   34.0140 O   0  0  0  0  0  0  0  0  0  0  0  0
   39.9460   38.2530   32.8970 C   0  0  0  0  0  0  0  0  0  0  0  0
   39.4130   39.8070   30.7200 C   0  0  0  0  0  0  0  0  0  0  0  0
   38.7280   37.3710   32.6870 O   0  0  0  0  0  0  0  0  0  0  0  0
   39.8280   40.0550   29.5410 O   0  0  0  0  0  0  0  0  0  0  0  0
   42.1150   37.6720   31.7590 O   0  0  0  0  0  0  0  0  0  0  0  0
   40.1900   38.9300   31.5470 C   0  0  0  0  0  0  0  0  0  0  0  0
   41.1950   37.3530   33.0040 C   0  0  0  0  0  0  0  0  0  0  0  0
   41.1380   38.0850   30.8580 O   0  0  0  0  0  0  0  0  0  0  0  0
  2  3  2  0
  4  6  1  0
  4 10  1  0
  7  5  2  0
  8  2  1  0
  9  5  1  0
  9  4  1  0
 10  1  1  0
 10  2  1  0
 11  9  1  0
 11  8  1  0
M  END
$$$$

     RDKit          3D

 12 13  0  0  0  0  0  0  0  0999 V2000
   37.0420   35.0660   33.4630 C   0  0  0  0  0  0  0  0  0  0  0  0
   39.3050   36.0970   32.8890 C   0  0  0  0  0  0  0  0  0  0  0  0
   35.9550   34.3040   33.5770 O   0  0  0  0  0  0  0  0  0  0  0  0
   36.6670   36.4130   33.7220 C   0  0  0  0  0  0  0  0  0  0  0  0
   38.4460   34.9560   33.1500 C   0  0  0  0  0  0  0  0  0  0  0  0
   38.7250   37.3640   32.9620 C   0  0  0  0  0  0  0  0  0  0  0  0
   40.6380   38.4240   31.9630 C   0  0  0  0  0  0  0  0  0  0  0  0
   41.2060   39.5440   31.3690 N   0  0  0  0  0  0  0  0  0  0  0  0
   37.5920   37.2750   33.3840 C   0  0  0  0  0  0  0  0  0  0  0  0
   40.6450   35.9960   32.4150 C   0  0  0  0  0  0  0  0  0  0  0  0
   39.3090   38.5300   32.4680 C   0  0  0  0  0  0  0  0  0  0  0  0
   41.3210   37.1770   31.9530 C   0  0  0  0  0  0  0  0  0  0  0  0
  1  3  1  0
  1  4  1  0
  2  6  1  0
  2  5  1  0
  5  1  2  0
  6  9  1  0
  7 11  1  0
  8  7  1  0
  9  4  2  0
 10  2  2  0
 11  6  2  0
 12  7  2  0
 12 10  1  0
M  END
$$$$

     RDKit          3D

 10 10  0  0  0  0  0  0  0  0999 V2000
   36.8330   38.1850   31.6640 O   0  0  0  0  0  0  0  0  0  0  0  0
   39.5250   39.4040   32.2520 O   0  0  0  0  0  0  0  0  0  0  0  0
   37.0400   34.5980   33.9860 O   0  0  0  0  0  0  0  0  0  0  0  0
   36.8670   35.6350   33.2970 C   0  0  0  0  0  0  0  0  0  0  0  0
   37.9650   36.5090   32.9760 C   0  0  0  0  0  0  0  0  0  0  0  0
   39.0720   38.6510   33.3350 C   0  0  0  0  0  0  0  0  0  0  0  0
   37.7260   37.9870   32.8230 C   0  0  0  0  0  0  0  0  0  0  0  0
   39.1850   36.2650   33.8560 C   0  0  0  0  0  0  0  0  0  0  0  0
   41.1980   37.8240   34.7150 C   0  0  0  0  0  0  0  0  0  0  0  0
   39.9530   37.5400   33.9100 C   0  0  0  0  0  0  0  0  0  0  0  0
  4  3  2  0
  5  4  1  0
  5  8  1  0
  6  2  1  0
  6 10  1  0
  7  1  1  0
  7  5  1  0
  7  6  1  0
  8 10  1  0
 10  9  1  0
M  END
$$$$

     RDKit          3D

  8  8  0  0  0  0  0  0  0  0999 V2000
   41.0070   36.7540   33.3430 O   0  0  0  0  0  0  0  0  0  0  0  0
   42.3340   39.7630   32.7670 C   0  0  0  0  0  0  0  0  0  0  0  0
   40.3710   35.5480   33.0440 C   0  0  0  0  0  0  0  0  0  0  0  0
   41.9080   38.9350   31.6840 O   0  0  0  0  0  0  0  0  0  0  0  0
   42.1990   36.8420   32.6330 C   0  0  0  0  0  0  0  0  0  0  0  0
   42.6850   38.2680   32.6340 C   0  0  0  0  0  0  0  0  0  0  0  0
   43.2230   40.0500   33.8750 O   0  0  0  0  0  0  0  0  0  0  0  0
   41.1070   40.3470   33.0820 O   0  0  0  0  0  0  0  0  0  0  0  0
  2  8  1  0
  2  7  1  0
  3  1  1  0
  4  6  1  0
  4  2  1  0
  5  1  1  0
  6  5  1  0
  6  2  1  0
M  END
$$$$

     RDKit          3D

 21 21  0  0  0  0  0  0  0  0999 V2000
   43.7210   37.4320   33.3810 C   0  0  0  0  0  0  0  0  0  0  0  0
   35.8940   34.9610   33.2700 N   0  0  0  0  0  0  0  0  0  0  0  0
   44.2180   38.7450   35.6610 C   0  0  0  0  0  0  0  0  0  0  0  0
   39.8330   36.1200   32.0800 C   0  0  0  0  0  0  0  0  0  0  0  0
   41.3260   37.2060   33.7660 N   0  0  0  0  0  0  0  0  0  0  0  0
   41.0910   36.7620   32.5690 C   0  0  0  0  0  0  0  0  0  0  0  0
   42.6710   37.0510   34.4630 C   0  0  0  0  0  0  0  0  0  0  0  0
   36.4440   37.3510   33.0060 N   0  0  0  0  0  0  0  0  0  0  0  0
   38.1000   34.0800   32.7010 C   0  0  0  0  0  0  0  0  0  0  0  0
   38.6720   36.9960   32.3320 N   0  0  0  0  0  0  0  0  0  0  0  0
   37.4130   36.5270   32.7320 C   0  0  0  0  0  0  0  0  0  0  0  0
   33.8370   36.2980   33.1160 C   0  0  0  0  0  0  0  0  0  0  0  0
   34.7890   35.5360   33.2630 C   0  0  0  0  0  0  0  0  0  0  0  0
   43.3460   37.3730   31.9690 C   0  0  0  0  0  0  0  0  0  0  0  0
   43.0390   37.7560   35.8050 C   0  0  0  0  0  0  0  0  0  0  0  0
   37.1010   35.1950   32.9180 C   0  0  0  0  0  0  0  0  0  0  0  0
   43.6810   40.0570   35.3090 N   0  0  0  0  0  0  0  0  0  0  0  0
   31.5550   35.7660   34.0320 C   0  0  0  0  0  0  0  0  0  0  0  0
   43.2020   40.8360   36.4570 C   0  0  0  0  0  0  0  0  0  0  0  0
   42.0290   37.1180   31.5390 C   0  0  0  0  0  0  0  0  0  0  0  0
   32.4810   35.9360   33.1240 C   0  0  0  0  0  0  0  0  0  0  0  0
  1  7  1  0
  3 15  1  0
  4 10  1  0
  5  7  1  0
  6  4  1  0
  6  5  1  0
  7 15  1  0
 10 11  1  0
 11 16  1  0
 11  8  2  0
 12 21  1  0
 12 13  1  0
 13  2  1  0
 14  1  1  0
 16  9  1  0
 16  2  1  0
 17  3  1  0
 17 19  1  0
 20 14  2  0
 20  6  1  0
 21 18  2  0
M  END
$$$$

     RDKit          3D

 20 21  0  0  0  0  0  0  0  0999 V2000
   42.9690   38.8380   32.6650 C   0  0  0  0  0  0  0  0  0  0  0  0
   40.5780   39.0310   33.3180 C   0  0  0  0  0  0  0  0  0  0  0  0
   37.8220   33.8580   33.4670 C   0  0  0  0  0  0  0  0  0  0  0  0
   39.5350   36.9680   32.8310 C   0  0  0  0  0  0  0  0  0  0  0  0
   33.3320   37.5650   32.3870 N   0  0  0  0  0  0  0  0  0  0  0  0
   36.9080   37.4450   32.3620 C   0  0  0  0  0  0  0  0  0  0  0  0
   42.6190   39.9320   34.8880 C   0  0  0  0  0  0  0  0  0  0  0  0
   42.0360   39.2720   33.6300 C   0  0  0  0  0  0  0  0  0  0  0  0
   35.6370   37.6040   32.2610 C   0  0  0  0  0  0  0  0  0  0  0  0
   34.5420   36.8070   32.4650 C   0  0  0  0  0  0  0  0  0  0  0  0
   37.4510   36.1040   32.6060 C   0  0  0  0  0  0  0  0  0  0  0  0
   42.7650   37.6790   31.9210 C   0  0  0  0  0  0  0  0  0  0  0  0
   41.1460   35.9750   31.4030 O   0  0  0  0  0  0  0  0  0  0  0  0
   35.5200   34.5630   32.7680 C   0  0  0  0  0  0  0  0  0  0  0  0
   40.3630   37.8300   32.4470 C   0  0  0  0  0  0  0  0  0  0  0  0
   38.8430   35.9350   32.5720 N   0  0  0  0  0  0  0  0  0  0  0  0
   41.4860   37.2650   31.5650 C   0  0  0  0  0  0  0  0  0  0  0  0
   36.8100   34.9440   32.9360 C   0  0  0  0  0  0  0  0  0  0  0  0
   37.1550   32.6390   33.7060 N   0  0  0  0  0  0  0  0  0  0  0  0
   34.2960   35.3540   32.6210 C   0  0  0  0  0  0  0  0  0  0  0  0
  1  8  1  0
  2  8  1  0
  3 19  1  0
  6 11  1  0
  8  7  1  0
  9  6  2  0
  9 10  1  0
 10  5  1  0
 10 20  1  0
 11 16  1  0
 11 18  1  0
 12  1  1  0
 14 18  1  0
 15  4  1  0
 15  2  1  0
 16  4  1  0
 17 13  1  0
 17 12  1  0
 17 15  1  0
 18  3  1  0
 20 14  1  0
M  END
$$$$

     RDKit          3D

 19 21  0  0  0  0  0  0  0  0999 V2000
   39.1430   34.5860   33.7890 N   0  0  0  0  0  0  0  0  0  0  0  0
   37.2290   33.3110   34.3250 N   0  0  0  0  0  0  0  0  0  0  0  0
   42.2710   36.5520   31.6940 C   0  0  0  0  0  0  0  0  0  0  0  0
   37.4170   37.7800   32.3710 S   0  0  0  0  0  0  0  0  0  0  0  0
   38.5510   33.4440   34.1940 C   0  0  0  0  0  0  0  0  0  0  0  0
   40.9100   37.7120   33.3120 C   0  0  0  0  0  0  0  0  0  0  0  0
   43.2600   37.6350   33.4790 O   0  0  0  0  0  0  0  0  0  0  0  0
   42.9510   38.8340   32.8480 C   0  0  0  0  0  0  0  0  0  0  0  0
   40.0460   36.8710   32.7480 N   0  0  0  0  0  0  0  0  0  0  0  0
   38.6880   36.8040   32.8660 C   0  0  0  0  0  0  0  0  0  0  0  0
   36.3950   34.2580   33.9310 C   0  0  0  0  0  0  0  0  0  0  0  0
   36.9440   35.4190   33.4050 C   0  0  0  0  0  0  0  0  0  0  0  0
   40.7480   38.2890   34.5080 O   0  0  0  0  0  0  0  0  0  0  0  0
   35.0670   36.5880   32.8310 O   0  0  0  0  0  0  0  0  0  0  0  0
   44.2660   38.8890   31.7900 C   0  0  0  0  0  0  0  0  0  0  0  0
   42.2430   37.4790   32.8210 C   0  0  0  0  0  0  0  0  0  0  0  0
   36.2840   36.4980   32.9290 C   0  0  0  0  0  0  0  0  0  0  0  0
   38.3310   35.4860   33.3480 C   0  0  0  0  0  0  0  0  0  0  0  0
   41.7320   35.4350   31.7330 O   0  0  0  0  0  0  0  0  0  0  0  0
  1  5  1  0
  3 19  2  0
  4 10  1  0
  4 17  1  0
  5  2  2  0
  6 13  2  0
  8 15  1  0
  8  7  1  0
  9  6  1  0
 10  9  1  0
 10 18  1  0
 11  2  1  0
 12 11  2  0
 14 17  2  0
 16  3  1  0
 16  8  1  0
 16  6  1  0
 16  7  1  0
 17 12  1  0
 18 12  1  0
 18  1  2  0
M  END
$$$$

     RDKit          3D

 29 31  0  0  0  0  0  0  0  0999 V2000
   35.6960   35.8810   32.3910 O   0  0  0  0  0  0  0  0  0  0  0  0
   39.7920   37.4560   32.0480 C   0  0  0  0  0  0  0  0  0  0  0  0
   34.3840   33.1960   34.5220 C   0  0  0  0  0  0  0  0  0  0  0  0
   43.6540   37.1830   32.1020 F   0  0  0  0  0  0  0  0  0  0  0  0
   39.4680   34.4350   33.8290 C   0  0  0  0  0  0  0  0  0  0  0  0
   40.8690   41.6580   30.4200 C   0  0  0  0  0  0  0  0  0  0  0  0
   42.9720   38.1920   32.7920 C   0  0  0  0  0  0  0  0  0  0  0  0
   36.8690   34.7210   34.1940 C   0  0  0  0  0  0  0  0  0  0  0  0
   39.4810   36.4850   32.8610 C   0  0  0  0  0  0  0  0  0  0  0  0
   43.4650   40.4420   33.1820 C   0  0  0  0  0  0  0  0  0  0  0  0
   41.1550   37.3490   31.4610 C   0  0  0  0  0  0  0  0  0  0  0  0
   41.3370   39.8950   32.1040 C   0  0  0  0  0  0  0  0  0  0  0  0
   40.3610   40.8450   31.5240 N   0  0  0  0  0  0  0  0  0  0  0  0
   33.0890   32.8250   34.8990 N   0  0  0  0  0  0  0  0  0  0  0  0
   38.9820   38.3250   31.7520 O   0  0  0  0  0  0  0  0  0  0  0  0
   34.4100   34.3610   33.6550 C   0  0  0  0  0  0  0  0  0  0  0  0
   35.3530   32.3720   35.0090 C   0  0  0  0  0  0  0  0  0  0  0  0
   33.0840   34.7850   33.2880 C   0  0  0  0  0  0  0  0  0  0  0  0
   39.6750   40.7120   30.2750 C   0  0  0  0  0  0  0  0  0  0  0  0
   35.6830   34.9800   33.2870 C   0  0  0  0  0  0  0  0  0  0  0  0
   40.2020   35.1500   32.7530 C   0  0  0  0  0  0  0  0  0  0  0  0
   42.2720   40.7890   32.7630 N   0  0  0  0  0  0  0  0  0  0  0  0
   41.8070   38.4840   32.1910 C   0  0  0  0  0  0  0  0  0  0  0  0
   36.5580   32.3030   35.0020 O   0  0  0  0  0  0  0  0  0  0  0  0
   38.2320   36.2900   33.1340 O   0  0  0  0  0  0  0  0  0  0  0  0
   34.6590   31.5910   35.8660 N   0  0  0  0  0  0  0  0  0  0  0  0
   33.1860   36.1240   32.7940 O   0  0  0  0  0  0  0  0  0  0  0  0
   38.1260   34.8820   33.3600 C   0  0  0  0  0  0  0  0  0  0  0  0
   43.8040   39.1330   33.3350 C   0  0  0  0  0  0  0  0  0  0  0  0
  1 20  2  0
  3 14  1  0
  3 17  1  0
  4  7  1  0
  6 13  1  0
  7 29  1  0
  9  2  1  0
  9 25  1  0
 10 29  2  0
 11  2  1  0
 11 23  1  0
 12 23  1  0
 12 22  2  0
 13 12  1  0
 15  2  2  0
 16  3  2  3
 17 26  1  0
 18 16  1  0
 19  6  1  0
 19 13  1  0
 20 16  1  0
 20  8  1  0
 21  9  1  0
 21  5  1  0
 22 10  1  0
 23  7  2  0
 24 17  2  0
 25 28  1  0
 27 18  1  0
 28  5  1  0
 28  8  1  0
M  END
$$$$

     RDKit          3D

  9  9  0  0  0  0  0  0  0  0999 V2000
   41.9590   37.4280   33.0970 C   0  0  0  0  0  0  0  0  0  0  0  0
   42.1630   37.1510   31.9460 O   0  0  0  0  0  0  0  0  0  0  0  0
   41.7210   36.9000   34.1940 O   0  0  0  0  0  0  0  0  0  0  0  0
   41.5900   40.6760   33.2810 O   0  0  0  0  0  0  0  0  0  0  0  0
   40.0310   40.0320   31.8610 O   0  0  0  0  0  0  0  0  0  0  0  0
   40.3550   38.9730   33.9710 C   0  0  0  0  0  0  0  0  0  0  0  0
   41.6700   38.2620   34.2580 C   0  0  0  0  0  0  0  0  0  0  0  0
   39.3710   38.0400   33.6200 O   0  0  0  0  0  0  0  0  0  0  0  0
   40.7910   39.8180   32.8490 C   0  0  0  0  0  0  0  0  0  0  0  0
  1  3  1  0
  1  7  1  0
  2  1  2  0
  3  7  1  0
  5  9  2  0
  6  8  1  0
  7  6  1  0
  9  4  1  0
  9  6  1  0
M  END
$$$$

     RDKit          3D

  7  7  0  0  0  0  0  0  0  0999 V2000
   34.7430   35.7820   33.5260 C   0  0  0  0  0  0  0  0  0  0  0  0
   37.0920   34.9470   33.3720 C   0  0  0  0  0  0  0  0  0  0  0  0
   37.5500   36.1320   32.7180 C   0  0  0  0  0  0  0  0  0  0  0  0
   35.6450   37.9550   32.3080 C   0  0  0  0  0  0  0  0  0  0  0  0
   35.6530   34.7320   33.6590 C   0  0  0  0  0  0  0  0  0  0  0  0
   34.5210   36.8180   32.4230 C   0  0  0  0  0  0  0  0  0  0  0  0
   36.8960   37.1720   32.4340 C   0  0  0  0  0  0  0  0  0  0  0  0
  1  5  1  0
  2  5  2  0
  3  2  1  0
  4  6  1  0
  4  7  1  0
  6  1  1  0
  7  3  2  0
M  END
$$$$

     RDKit          3D

 11 12  0  0  0  0  0  0  0  0999 V2000
   35.5630   34.1740   34.0060 C   0  0  0  0  0  0  0  0  0  0  0  0
   38.7540   35.3780   33.1700 C   0  0  0  0  0  0  0  0  0  0  0  0
   40.4900   37.2230   32.3120 C   0  0  0  0  0  0  0  0  0  0  0  0
   39.2090   37.6400   32.6500 C   0  0  0  0  0  0  0  0  0  0  0  0
   40.8380   35.8790   32.2940 C   0  0  0  0  0  0  0  0  0  0  0  0
   38.2860   36.6730   33.0160 C   0  0  0  0  0  0  0  0  0  0  0  0
   36.8210   36.7950   33.2050 N   0  0  0  0  0  0  0  0  0  0  0  0
   35.6050   35.8870   33.5610 C   0  0  0  0  0  0  0  0  0  0  0  0
   37.9680   34.3440   33.5630 C   0  0  0  0  0  0  0  0  0  0  0  0
   36.8460   33.8590   33.8640 N   0  0  0  0  0  0  0  0  0  0  0  0
   39.9680   34.9170   32.7050 C   0  0  0  0  0  0  0  0  0  0  0  0
  2  9  1  0
  3  4  1  0
  4  6  2  0
  5  3  2  0
  5 11  1  0
  6  2  1  0
  6  7  1  0
  7  8  2  0
  8  1  1  0
  9 10  2  0
 10  1  1  0
 11  2  2  0
M  END
$$$$

     RDKit          3D

  6  6  0  0  0  0  0  0  0  0999 V2000
   39.2640   35.9810   33.5130 C   0  0  0  0  0  0  0  0  0  0  0  0
   39.1440   38.6640   33.0990 C   0  0  0  0  0  0  0  0  0  0  0  0
   39.4390   37.2260   32.9980 C   0  0  0  0  0  0  0  0  0  0  0  0
   37.8570   35.6250   34.0530 C   0  0  0  0  0  0  0  0  0  0  0  0
   40.3260   35.6910   34.3180 N   0  0  0  0  0  0  0  0  0  0  0  0
   39.4850   36.3670   32.2320 O   0  0  0  0  0  0  0  0  0  0  0  0
  1  4  1  0
  1  5  1  0
  3  2  1  0
  3  1  1  0
  6  3  1  0
  6  1  1  0
M  END
$$$$

     RDKit          3D

  7  6  0  0  0  0  0  0  0  0999 V2000
   37.2280   36.9500   33.1620 C   0  0  0  0  0  0  0  0  0  0  0  0
   41.1270   38.4950   32.7460 N   0  0  0  0  0  0  0  0  0  0  0  0
   37.0490   35.9350   32.2570 O   0  0  0  0  0  0  0  0  0  0  0  0
   40.8830   37.1030   32.4890 C   0  0  0  0  0  0  0  0  0  0  0  0
   35.8360   37.2710   32.7640 C   0  0  0  0  0  0  0  0  0  0  0  0
   39.6430   36.9050   33.3390 C   0  0  0  0  0  0  0  0  0  0  0  0
   38.5070   37.8430   32.9540 C   0  0  0  0  0  0  0  0  0  0  0  0
  1  5  1  0
  3  1  1  0
  4  2  1  0
  4  6  1  0
  7  1  1  0
  7  6  1  0
M  END
$$$$

     RDKit          3D

 17 19  0  0  0  0  0  0  0  0999 V2000
   37.7070   36.2790   33.0770 C   0  0  0  0  0  0  0  0  0  0  0  0
   35.8360   37.5920   32.6840 C   0  0  0  0  0  0  0  0  0  0  0  0
   41.7070   37.0330   31.1020 C   0  0  0  0  0  0  0  0  0  0  0  0
   35.6550   35.1710   33.1040 C   0  0  0  0  0  0  0  0  0  0  0  0
   41.0780   35.7840   31.2010 C   0  0  0  0  0  0  0  0  0  0  0  0
   33.6930   36.5010   32.6650 C   0  0  0  0  0  0  0  0  0  0  0  0
   37.0060   35.0760   33.1180 C   0  0  0  0  0  0  0  0  0  0  0  0
   40.3310   36.3260   33.5860 C   0  0  0  0  0  0  0  0  0  0  0  0
   40.0170   35.5780   32.3320 C   0  0  0  0  0  0  0  0  0  0  0  0
   38.9390   36.2340   33.6400 C   0  0  0  0  0  0  0  0  0  0  0  0
   40.9220   37.7070   33.2890 C   0  0  0  0  0  0  0  0  0  0  0  0
   37.1990   37.4880   32.7360 C   0  0  0  0  0  0  0  0  0  0  0  0
   35.0750   36.4200   32.8190 C   0  0  0  0  0  0  0  0  0  0  0  0
   39.9170   34.2100   32.4680 F   0  0  0  0  0  0  0  0  0  0  0  0
   43.2690   38.0330   32.8130 N   0  0  0  0  0  0  0  0  0  0  0  0
   32.9550   37.2310   31.9960 N   0  0  0  0  0  0  0  0  0  0  0  0
   42.0810   37.5950   32.6780 C   0  0  0  0  0  0  0  0  0  0  0  0
  1  7  1  0
  2 12  1  0
  2 13  2  0
  3  5  1  0
  3 17  1  0
  4  7  2  0
  5  9  1  0
  6 13  1  0
  8 11  1  0
  8 10  1  0
  9 14  1  0
  9  8  1  0
  9 10  1  0
 10  1  1  0
 12  1  2  0
 13  4  1  0
 16  6  2  0
 17 15  2  0
 17 11  1  0
M  END
$$$$

     RDKit          3D

 10 11  0  0  0  0  0  0  0  0999 V2000
   38.1250   37.9510   32.4900 C   0  0  0  0  0  0  0  0  0  0  0  0
   38.2730   39.1660   32.3460 N   0  0  0  0  0  0  0  0  0  0  0  0
   39.4340   34.6280   33.0550 C   0  0  0  0  0  0  0  0  0  0  0  0
   39.6850   39.4760   32.0670 C   0  0  0  0  0  0  0  0  0  0  0  0
   37.1120   35.1700   33.3680 O   0  0  0  0  0  0  0  0  0  0  0  0
   40.4060   38.3080   32.6820 C   0  0  0  0  0  0  0  0  0  0  0  0
   40.6840   36.8350   32.5630 C   0  0  0  0  0  0  0  0  0  0  0  0
   38.4800   35.7810   33.3240 C   0  0  0  0  0  0  0  0  0  0  0  0
   39.0840   33.5210   33.8650 O   0  0  0  0  0  0  0  0  0  0  0  0
   39.2360   37.2380   32.8240 C   0  0  0  0  0  0  0  0  0  0  0  0
  1 10  1  0
  2  1  1  0
  3  8  1  0
  3  9  1  0
  4  2  1  0
  6  4  1  0
  6 10  1  0
  7  6  1  0
  7 10  1  0
  8  5  1  0
 10  8  1  0
M  END
$$$$

     RDKit          3D

 23 25  0  0  0  0  0  0  0  0999 V2000
   37.3330   35.0970   33.3900 C   0  0  0  0  0  0  0  0  0  0  0  0
   40.3740   40.0090   32.6290 O   0  0  0  0  0  0  0  0  0  0  0  0
   34.7270   34.6990   34.0450 C   0  0  0  0  0  0  0  0  0  0  0  0
   40.0700   36.8670   32.6350 C   0  0  0  0  0  0  0  0  0  0  0  0
   37.5740   34.7400   34.7040 O   0  0  0  0  0  0  0  0  0  0  0  0
   39.5990   35.5940   33.1870 N   0  0  0  0  0  0  0  0  0  0  0  0
   43.2340   40.4500   32.6030 C   0  0  0  0  0  0  0  0  0  0  0  0
   43.9630   41.4180   32.1280 O   0  0  0  0  0  0  0  0  0  0  0  0
   34.0790   35.0810   33.1060 O   0  0  0  0  0  0  0  0  0  0  0  0
   42.1360   38.6470   32.2960 N   0  0  0  0  0  0  0  0  0  0  0  0
   43.2580   39.2060   32.6860 N   0  0  0  0  0  0  0  0  0  0  0  0
   36.1130   34.3500   33.8290 C   0  0  0  0  0  0  0  0  0  0  0  0
   32.9530   32.4150   36.2660 Cl  0  0  0  0  0  0  0  0  0  0  0  0
   40.6270   37.6850   33.8060 C   0  0  0  0  0  0  0  0  0  0  0  0
   38.6140   34.7190   32.7790 C   0  0  0  0  0  0  0  0  0  0  0  0
   32.3590   33.8650   35.0570 O   0  0  0  0  0  0  0  0  0  0  0  0
   34.3790   34.9510   35.4650 C   0  0  0  0  0  0  0  0  0  0  0  0
   41.3580   36.3870   31.8910 C   0  0  0  0  0  0  0  0  0  0  0  0
   42.9690   41.7480   32.8940 C   0  0  0  0  0  0  0  0  0  0  0  0
   36.8110   36.3860   32.6090 C   0  0  0  0  0  0  0  0  0  0  0  0
   41.1170   38.9640   33.3380 C   0  0  0  0  0  0  0  0  0  0  0  0
   32.8140   35.1390   35.3930 C   0  0  0  0  0  0  0  0  0  0  0  0
   42.2060   37.5330   31.3790 C   0  0  0  0  0  0  0  0  0  0  0  0
  1 20  1  0
  1 12  1  0
  1  5  1  0
  3 17  1  0
  4  6  1  0
  4 14  1  0
  7 11  1  0
  7 19  1  0
  8  7  1  0
  8 19  1  0
  9  3  2  0
 10 11  1  0
 10 21  1  0
 12  3  1  0
 12  5  1  0
 15  6  1  0
 15  1  1  0
 16 22  1  0
 16 13  1  0
 18  4  1  0
 21  2  1  0
 21 14  1  0
 22 17  1  0
 23 18  1  0
 23 10  1  0
M  END
$$$$

     RDKit          3D

 19 21  0  0  0  0  0  0  0  0999 V2000
   39.6470   39.4250   33.6290 C   0  0  0  0  0  0  0  0  0  0  0  0
   40.8150   37.4360   32.7950 C   0  0  0  0  0  0  0  0  0  0  0  0
   36.9190   31.4470   33.9780 C   0  0  0  0  0  0  0  0  0  0  0  0
   38.0610   32.2530   33.4400 C   0  0  0  0  0  0  0  0  0  0  0  0
   40.7250   36.0380   32.3530 C   0  0  0  0  0  0  0  0  0  0  0  0
   35.7390   36.6580   32.9020 C   0  0  0  0  0  0  0  0  0  0  0  0
   43.0470   40.7600   32.3090 Cl  0  0  0  0  0  0  0  0  0  0  0  0
   41.9910   35.5670   31.9160 O   0  0  0  0  0  0  0  0  0  0  0  0
   42.1010   38.2210   32.6330 C   0  0  0  0  0  0  0  0  0  0  0  0
   38.8070   34.8560   32.9730 C   0  0  0  0  0  0  0  0  0  0  0  0
   39.6650   38.1070   33.3250 C   0  0  0  0  0  0  0  0  0  0  0  0
   37.8650   33.8280   33.3850 C   0  0  0  0  0  0  0  0  0  0  0  0
   38.5410   37.4170   33.1840 N   0  0  0  0  0  0  0  0  0  0  0  0
   40.0630   34.7090   32.4810 N   0  0  0  0  0  0  0  0  0  0  0  0
   41.7830   39.6750   32.3820 C   0  0  0  0  0  0  0  0  0  0  0  0
   38.2100   36.1200   33.0770 C   0  0  0  0  0  0  0  0  0  0  0  0
   36.8680   35.7330   33.2250 C   0  0  0  0  0  0  0  0  0  0  0  0
   36.8360   34.4150   33.6310 N   0  0  0  0  0  0  0  0  0  0  0  0
   40.7630   40.3480   33.2540 C   0  0  0  0  0  0  0  0  0  0  0  0
  2 11  2  0
  4  3  1  0
  5 14  1  0
  5  2  1  0
  8  5  2  0
  9  2  1  0
 10 16  1  0
 10 12  2  0
 11  1  1  0
 12  4  1  0
 12 18  1  0
 13 11  1  0
 14 10  1  0
 15  7  1  0
 15  9  1  0
 15 19  1  0
 16 13  2  0
 16 17  1  0
 17  6  1  0
 17 18  1  0
 19  1  1  0
M  END
$$$$

     RDKit          3D

 22 24  0  0  0  0  0  0  0  0999 V2000
   41.3290   37.5560   31.4220 C   0  0  0  0  0  0  0  0  0  0  0  0
   31.2740   35.7840   34.3050 C   0  0  0  0  0  0  0  0  0  0  0  0
   37.4490   34.4730   33.7290 N   0  0  0  0  0  0  0  0  0  0  0  0
   33.4110   36.5150   32.9250 O   0  0  0  0  0  0  0  0  0  0  0  0
   32.6050   35.0600   34.5810 C   0  0  0  0  0  0  0  0  0  0  0  0
   41.4160   39.0800   31.2710 C   0  0  0  0  0  0  0  0  0  0  0  0
   35.1310   34.9300   33.6870 C   0  0  0  0  0  0  0  0  0  0  0  0
   42.3080   41.1760   31.8650 C   0  0  0  0  0  0  0  0  0  0  0  0
   36.0080   35.9350   33.2220 C   0  0  0  0  0  0  0  0  0  0  0  0
   40.2990   37.0000   32.2440 N   0  0  0  0  0  0  0  0  0  0  0  0
   31.8820   34.5870   35.2150 N   0  0  0  0  0  0  0  0  0  0  0  0
   39.9040   35.3530   32.4260 S   0  0  0  0  0  0  0  0  0  0  0  0
   38.9620   37.4770   32.4180 C   0  0  0  0  0  0  0  0  0  0  0  0
   43.1810   39.1420   32.8970 O   0  0  0  0  0  0  0  0  0  0  0  0
   42.3680   36.7700   31.2140 O   0  0  0  0  0  0  0  0  0  0  0  0
   36.4030   33.9740   33.9800 N   0  0  0  0  0  0  0  0  0  0  0  0
   42.6910   39.6170   31.8820 C   0  0  0  0  0  0  0  0  0  0  0  0
   38.3800   36.2040   32.6150 C   0  0  0  0  0  0  0  0  0  0  0  0
   40.3560   39.8970   32.0900 C   0  0  0  0  0  0  0  0  0  0  0  0
   33.5710   35.5910   33.6840 C   0  0  0  0  0  0  0  0  0  0  0  0
   41.0890   41.0450   32.6370 O   0  0  0  0  0  0  0  0  0  0  0  0
   37.3000   35.6080   33.1520 C   0  0  0  0  0  0  0  0  0  0  0  0
  1 10  1  0
  2  5  1  0
  3 16  1  0
  4 20  2  0
  5 11  2  0
  6  1  1  0
  6 17  1  0
  6 19  1  0
  7 16  1  0
  8 17  1  0
  8 21  1  0
  9  7  2  0
 10 13  1  0
 10 12  1  0
 12 18  1  0
 13 18  1  0
 15  1  2  0
 17 14  1  0
 18 22  1  0
 19 21  1  0
 20  7  1  0
 20  5  1  0
 22  9  1  0
 22  3  2  0
M  END
$$$$

     RDKit          3D

  6  5  0  0  0  0  0  0  0  0999 V2000
   39.6230   37.9820   32.3510 C   0  0  0  0  0  0  0  0  0  0  0  0
   38.8820   36.9620   34.3220 N   0  0  0  0  0  0  0  0  0  0  0  0
   38.6650   38.6530   32.7460 O   0  0  0  0  0  0  0  0  0  0  0  0
   40.9530   36.0610   33.0800 C   0  0  0  0  0  0  0  0  0  0  0  0
   39.5290   36.6280   33.0620 C   0  0  0  0  0  0  0  0  0  0  0  0
   40.2700   38.1420   31.2800 O   0  0  0  0  0  0  0  0  0  0  0  0
  1  3  1  0
  1  5  1  0
  5  4  1  0
  5  2  1  0
  6  1  2  0
M  END
$$$$
