
     RDKit          3D

 13 12  0  0  0  0  0  0  0  0999 V2000
   36.7920   37.9680   27.6160 C   0  0  0  0  0  0  0  0  0  0  0  0
   38.8120   40.7330   24.4140 N   0  0  0  0  0  0  0  0  0  0  0  0
   36.9900   37.3940   29.8440 N   0  0  0  0  0  0  0  0  0  0  0  0
   39.5050   41.5880   26.5030 O   0  0  0  0  0  0  0  0  0  0  0  0
   37.7740   38.8380   25.6370 C   0  0  0  0  0  0  0  0  0  0  0  0
   37.5360   37.6950   31.1310 C   0  0  0  0  0  0  0  0  0  0  0  0
   36.9620   38.3470   28.8770 C   0  0  0  0  0  0  0  0  0  0  0  0
   37.2650   37.6380   26.3400 C   0  0  0  0  0  0  0  0  0  0  0  0
   36.8140   36.9430   32.1260 N   0  0  0  0  0  0  0  0  0  0  0  0
   38.0180   39.8570   26.5140 O   0  0  0  0  0  0  0  0  0  0  0  0
   38.1160   38.6540   31.6450 O   0  0  0  0  0  0  0  0  0  0  0  0
   37.0720   39.5500   29.2070 O   0  0  0  0  0  0  0  0  0  0  0  0
   39.0670   40.4500   25.8060 C   0  0  0  0  0  0  0  0  0  0  0  0
  1  7  1  0
  3  6  1  0
  5  8  1  0
  5 10  1  0
  6 11  2  0
  6  9  1  0
  7 12  2  0
  7  3  1  0
  8  1  1  0
 13  2  1  0
 13  4  1  0
 13 10  1  0
M  END
$$$$

     RDKit          3D

 12 11  0  0  0  0  0  0  0  0999 V2000
   34.4830   35.9050   28.3390 O   0  0  0  0  0  0  0  0  0  0  0  0
   34.7020   38.0240   27.3170 C   0  0  0  0  0  0  0  0  0  0  0  0
   36.4620   36.3130   27.2970 N   0  0  0  0  0  0  0  0  0  0  0  0
   34.8000   39.7690   25.5830 C   0  0  0  0  0  0  0  0  0  0  0  0
   36.4890   39.4160   23.6560 C   0  0  0  0  0  0  0  0  0  0  0  0
   38.0620   40.9680   24.4730 O   0  0  0  0  0  0  0  0  0  0  0  0
   35.2990   38.3960   26.0030 C   0  0  0  0  0  0  0  0  0  0  0  0
   35.2380   36.6660   27.7120 C   0  0  0  0  0  0  0  0  0  0  0  0
   37.8310   40.1150   23.5090 C   0  0  0  0  0  0  0  0  0  0  0  0
   35.5240   40.3030   24.3830 C   0  0  0  0  0  0  0  0  0  0  0  0
   38.8230   38.9430   23.2610 C   0  0  0  0  0  0  0  0  0  0  0  0
   35.4870   41.5330   24.2220 O   0  0  0  0  0  0  0  0  0  0  0  0
  2  8  1  0
  3  8  1  0
  4  7  1  0
  5 10  1  0
  7  2  1  0
  8  1  2  0
  9 11  1  0
  9  5  1  0
  9  6  1  0
 10  4  1  0
 12 10  2  0
M  END
$$$$

     RDKit          3D

  9  8  0  0  0  0  0  0  0  0999 V2000
   34.4620   38.3140   23.7010 C   0  0  0  0  0  0  0  0  0  0  0  0
   34.0010   38.4630   24.8760 O   0  0  0  0  0  0  0  0  0  0  0  0
   37.2970   37.9940   23.9590 O   0  0  0  0  0  0  0  0  0  0  0  0
   35.4460   39.1820   23.3430 C   0  0  0  0  0  0  0  0  0  0  0  0
   34.0460   37.4020   23.1120 O   0  0  0  0  0  0  0  0  0  0  0  0
   33.9790   40.1500   21.7620 O   0  0  0  0  0  0  0  0  0  0  0  0
   36.8830   38.9640   23.3610 C   0  0  0  0  0  0  0  0  0  0  0  0
   35.0030   40.4640   22.8260 C   0  0  0  0  0  0  0  0  0  0  0  0
   37.8270   39.7810   22.6300 C   0  0  0  0  0  0  0  0  0  0  0  0
  1  2  1  0
  4  8  1  0
  4  7  1  0
  4  1  1  0
  5  1  2  0
  6  8  1  0
  7  3  2  0
  9  7  1  0
M  END
$$$$

     RDKit          3D

 20 20  0  0  0  0  0  0  0  0999 V2000
   37.4090   38.6140   30.0560 C   0  0  0  0  0  0  0  0  0  0  0  0
   36.9940   41.8220   25.8790 O   0  0  0  0  0  0  0  0  0  0  0  0
   37.8440   37.4000   23.8690 O   0  0  0  0  0  0  0  0  0  0  0  0
   35.5440   37.0010   27.2680 N   0  0  0  0  0  0  0  0  0  0  0  0
   37.2540   36.1720   32.6510 C   0  0  0  0  0  0  0  0  0  0  0  0
   36.0870   37.4900   28.1760 C   0  0  0  0  0  0  0  0  0  0  0  0
   37.1570   39.0210   27.6280 C   0  0  0  0  0  0  0  0  0  0  0  0
   38.8720   41.0520   26.8200 O   0  0  0  0  0  0  0  0  0  0  0  0
   35.9870   36.8190   22.9620 O   0  0  0  0  0  0  0  0  0  0  0  0
   37.6670   40.8380   26.4210 C   0  0  0  0  0  0  0  0  0  0  0  0
   35.8780   36.7370   25.1060 O   0  0  0  0  0  0  0  0  0  0  0  0
   37.6630   37.3380   30.3050 C   0  0  0  0  0  0  0  0  0  0  0  0
   36.7430   36.7650   23.9870 C   0  0  0  0  0  0  0  0  0  0  0  0
   36.6870   35.3420   32.9270 N   0  0  0  0  0  0  0  0  0  0  0  0
   36.7750   38.6070   26.1070 N   0  0  0  0  0  0  0  0  0  0  0  0
   36.6580   36.2490   30.3600 C   0  0  0  0  0  0  0  0  0  0  0  0
   36.2370   36.2620   31.6730 C   0  0  0  0  0  0  0  0  0  0  0  0
   36.8000   38.4480   28.5700 C   0  0  0  0  0  0  0  0  0  0  0  0
   37.0090   39.6140   26.7210 C   0  0  0  0  0  0  0  0  0  0  0  0
   36.0060   37.6010   26.1370 C   0  0  0  0  0  0  0  0  0  0  0  0
  1 12  1  0
  2 10  2  0
  3 13  1  0
  4  6  1  0
  5 14  1  0
  6 18  2  0
  7 18  1  0
  9 13  2  0
 10  8  1  0
 11 20  1  0
 12 16  1  0
 13 11  1  0
 15 20  2  0
 15 19  1  0
 16 17  1  0
 17  5  1  0
 18  1  1  0
 19 10  1  0
 19  7  1  0
 20  4  2  0
M  END
$$$$

     RDKit          3D

 13 14  0  0  0  0  0  0  0  0999 V2000
   37.1950   35.8280   26.0420 C   0  0  0  0  0  0  0  0  0  0  0  0
   35.6300   37.8940   27.1850 C   0  0  0  0  0  0  0  0  0  0  0  0
   37.7030   38.2780   25.9920 C   0  0  0  0  0  0  0  0  0  0  0  0
   39.9030   41.0690   25.5680 O   0  0  0  0  0  0  0  0  0  0  0  0
   38.7190   41.3540   26.1070 C   0  0  0  0  0  0  0  0  0  0  0  0
   35.7850   39.2870   27.4840 C   0  0  0  0  0  0  0  0  0  0  0  0
   36.8100   39.9680   27.9530 C   0  0  0  0  0  0  0  0  0  0  0  0
   37.3020   36.3350   27.3450 N   0  0  0  0  0  0  0  0  0  0  0  0
   36.7660   37.2880   26.5650 C   0  0  0  0  0  0  0  0  0  0  0  0
   38.6280   38.9410   26.9440 C   0  0  0  0  0  0  0  0  0  0  0  0
   38.3650   42.7940   26.3030 C   0  0  0  0  0  0  0  0  0  0  0  0
   38.1370   40.3620   27.1570 C   0  0  0  0  0  0  0  0  0  0  0  0
   39.0390   40.8050   28.4040 N   0  0  0  0  0  0  0  0  0  0  0  0
  1  9  1  0
  1  8  1  0
  2  6  1  0
  3 10  1  0
  4  5  1  0
  5 11  1  0
  5 12  1  0
  6  7  1  0
  9  3  1  0
  9  2  1  0
  9  8  1  0
 10 12  1  0
 12  7  1  0
 12 13  1  0
M  END
$$$$

     RDKit          3D

 15 16  0  0  0  0  0  0  0  0999 V2000
   37.4260   37.0290   30.2170 N   0  0  0  0  0  0  0  0  0  0  0  0
   36.5260   39.9300   27.8380 C   0  0  0  0  0  0  0  0  0  0  0  0
   38.1650   42.0490   28.1710 C   0  0  0  0  0  0  0  0  0  0  0  0
   37.6180   43.3260   27.5000 C   0  0  0  0  0  0  0  0  0  0  0  0
   37.2090   39.5990   30.2470 C   0  0  0  0  0  0  0  0  0  0  0  0
   36.7590   42.2150   26.6000 C   0  0  0  0  0  0  0  0  0  0  0  0
   36.8480   37.4440   31.5260 C   0  0  0  0  0  0  0  0  0  0  0  0
   38.2350   35.8230   30.3370 C   0  0  0  0  0  0  0  0  0  0  0  0
   37.4530   41.0000   27.2490 C   0  0  0  0  0  0  0  0  0  0  0  0
   37.3660   37.6000   28.8680 C   0  0  0  0  0  0  0  0  0  0  0  0
   36.1180   42.5790   25.8740 O   0  0  0  0  0  0  0  0  0  0  0  0
   38.5020   44.0140   26.7220 O   0  0  0  0  0  0  0  0  0  0  0  0
   36.9870   39.0700   28.9270 C   0  0  0  0  0  0  0  0  0  0  0  0
   38.3570   40.5030   26.1500 C   0  0  0  0  0  0  0  0  0  0  0  0
   36.2450   38.6240   31.0480 C   0  0  0  0  0  0  0  0  0  0  0  0
  1  8  1  0
  1  7  1  0
  4 12  1  0
  4  3  1  0
  5 15  1  0
  6  9  1  0
  6  4  1  0
  9 14  1  0
  9  2  1  0
  9  3  1  0
 10 13  1  0
 10  1  1  0
 11  6  2  0
 13  2  1  0
 13  5  1  0
 15  7  1  0
M  END
$$$$

     RDKit          3D

 20 21  0  0  0  0  0  0  0  0999 V2000
   33.4820   34.9680   32.3720 O   0  0  0  0  0  0  0  0  0  0  0  0
   37.9120   39.4080   28.2520 C   0  0  0  0  0  0  0  0  0  0  0  0
   36.0970   38.0430   28.6720 C   0  0  0  0  0  0  0  0  0  0  0  0
   34.8980   35.9390   29.4200 C   0  0  0  0  0  0  0  0  0  0  0  0
   36.8990   37.6790   23.8450 C   0  0  0  0  0  0  0  0  0  0  0  0
   35.9310   36.4430   30.1610 C   0  0  0  0  0  0  0  0  0  0  0  0
   35.3810   37.4680   23.8930 C   0  0  0  0  0  0  0  0  0  0  0  0
   36.3520   35.5010   31.0860 C   0  0  0  0  0  0  0  0  0  0  0  0
   33.9340   34.6120   31.0810 C   0  0  0  0  0  0  0  0  0  0  0  0
   35.4650   34.5250   31.3620 N   0  0  0  0  0  0  0  0  0  0  0  0
   37.5390   35.5220   31.6140 O   0  0  0  0  0  0  0  0  0  0  0  0
   37.2960   38.3080   25.1760 C   0  0  0  0  0  0  0  0  0  0  0  0
   38.6160   38.4120   25.3710 O   0  0  0  0  0  0  0  0  0  0  0  0
   36.6060   38.3320   26.3940 O   0  0  0  0  0  0  0  0  0  0  0  0
   37.6220   38.4920   30.4720 C   0  0  0  0  0  0  0  0  0  0  0  0
   38.1730   39.4780   29.6400 C   0  0  0  0  0  0  0  0  0  0  0  0
   33.6270   35.5450   29.9360 C   0  0  0  0  0  0  0  0  0  0  0  0
   36.8980   38.5330   27.7350 C   0  0  0  0  0  0  0  0  0  0  0  0
   37.3060   38.6520   22.6940 C   0  0  0  0  0  0  0  0  0  0  0  0
   36.6480   37.6480   29.8660 C   0  0  0  0  0  0  0  0  0  0  0  0
  2 16  1  0
  3 20  2  0
  4 17  1  0
  4  6  1  0
  5  7  1  0
  5 12  1  0
  6 20  1  0
  6  8  1  0
  8 10  1  0
  8 11  2  0
  9 10  1  0
  9  1  1  0
 12 13  2  0
 12 14  1  0
 14 18  1  0
 16 15  2  0
 17  9  1  0
 18  2  2  0
 18  3  1  0
 19  5  1  0
 20 15  1  0
M  END
$$$$

     RDKit          3D

 11 13  0  0  0  0  0  0  0  0999 V2000
   34.4410   40.0200   26.8000 N   0  0  0  0  0  0  0  0  0  0  0  0
   36.2260   41.1020   25.8800 O   0  0  0  0  0  0  0  0  0  0  0  0
   35.9720   36.2780   25.0020 C   0  0  0  0  0  0  0  0  0  0  0  0
   33.0260   38.2770   27.7830 N   0  0  0  0  0  0  0  0  0  0  0  0
   35.1330   37.9950   26.4700 C   0  0  0  0  0  0  0  0  0  0  0  0
   36.7300   37.9430   25.0860 N   0  0  0  0  0  0  0  0  0  0  0  0
   35.0630   36.6940   25.9080 O   0  0  0  0  0  0  0  0  0  0  0  0
   35.9860   38.7500   25.7950 C   0  0  0  0  0  0  0  0  0  0  0  0
   36.8030   36.9580   24.1240 C   0  0  0  0  0  0  0  0  0  0  0  0
   35.6490   40.0680   26.1960 C   0  0  0  0  0  0  0  0  0  0  0  0
   34.1230   38.7120   27.1270 C   0  0  0  0  0  0  0  0  0  0  0  0
  1 11  1  0
  2 10  2  0
  3  9  1  0
  3  6  1  0
  3  7  1  0
  5  7  1  0
  5 11  1  0
  6  9  1  0
  6  8  1  0
  8 10  1  0
  8  5  1  0
 10  1  1  0
 11  4  1  0
M  END
$$$$

     RDKit          3D

 29 33  0  0  0  0  0  0  0  0999 V2000
   39.5540   39.2810   21.2960 N   0  0  0  0  0  0  0  0  0  0  0  0
   39.1220   40.2360   20.1080 O   0  0  0  0  0  0  0  0  0  0  0  0
   39.4560   42.0960   21.4920 C   0  0  0  0  0  0  0  0  0  0  0  0
   37.3730   38.8580   25.0550 C   0  0  0  0  0  0  0  0  0  0  0  0
   38.2380   39.0010   31.7120 C   0  0  0  0  0  0  0  0  0  0  0  0
   38.5830   37.0680   34.1510 O   0  0  0  0  0  0  0  0  0  0  0  0
   37.1110   38.4130   26.2350 C   0  0  0  0  0  0  0  0  0  0  0  0
   37.2610   35.5290   32.5430 N   0  0  0  0  0  0  0  0  0  0  0  0
   35.8240   36.9160   28.7470 N   0  0  0  0  0  0  0  0  0  0  0  0
   34.9210   38.7840   26.9080 C   0  0  0  0  0  0  0  0  0  0  0  0
   36.9890   37.0230   30.8370 C   0  0  0  0  0  0  0  0  0  0  0  0
   35.0000   35.8630   29.2630 C   0  0  0  0  0  0  0  0  0  0  0  0
   35.2500   35.2510   30.6110 C   0  0  0  0  0  0  0  0  0  0  0  0
   33.6140   38.3060   27.4600 C   0  0  0  0  0  0  0  0  0  0  0  0
   39.4800   40.4340   21.2710 C   0  0  0  0  0  0  0  0  0  0  0  0
   37.7520   38.9080   27.0660 O   0  0  0  0  0  0  0  0  0  0  0  0
   38.4790   39.4840   23.2930 C   0  0  0  0  0  0  0  0  0  0  0  0
   36.8310   37.6530   29.5010 C   0  0  0  0  0  0  0  0  0  0  0  0
   38.0650   38.2280   22.8570 O   0  0  0  0  0  0  0  0  0  0  0  0
   35.9790   37.4910   26.5480 C   0  0  0  0  0  0  0  0  0  0  0  0
   34.5590   39.5820   25.7070 C   0  0  0  0  0  0  0  0  0  0  0  0
   36.4400   35.8580   31.3150 C   0  0  0  0  0  0  0  0  0  0  0  0
   38.4140   39.4160   30.3360 C   0  0  0  0  0  0  0  0  0  0  0  0
   38.5800   39.5980   24.6990 C   0  0  0  0  0  0  0  0  0  0  0  0
   37.7440   37.7290   31.8870 C   0  0  0  0  0  0  0  0  0  0  0  0
   37.5140   39.0020   29.3670 C   0  0  0  0  0  0  0  0  0  0  0  0
   38.0630   36.7110   32.9700 C   0  0  0  0  0  0  0  0  0  0  0  0
   35.7600   36.6460   27.3350 C   0  0  0  0  0  0  0  0  0  0  0  0
   39.6110   39.8980   22.5220 C   0  0  0  0  0  0  0  0  0  0  0  0
  1  2  1  0
  1 29  1  0
  2 15  1  0
  4  7  1  0
  5 25  2  0
  7 20  1  0
  7 16  2  0
  8 27  1  0
  9 12  1  0
  9 18  1  0
 10 14  1  0
 11 22  2  0
 11 25  1  0
 12 13  2  0
 13 22  1  0
 15  1  1  0
 15  3  1  0
 15 29  1  0
 17 19  1  0
 17 24  1  0
 18 26  1  0
 18 11  1  0
 20 10  1  0
 20 28  1  0
 21 10  1  0
 22  8  1  0
 23  5  1  0
 24  4  1  0
 25 27  1  0
 26 23  2  0
 27  6  2  0
 28  9  1  0
 29 17  1  0
M  END
$$$$

     RDKit          3D

 10  9  0  0  0  0  0  0  0  0999 V2000
   35.0270   36.8430   27.4540 O   0  0  0  0  0  0  0  0  0  0  0  0
   37.4350   38.0500   25.0650 C   0  0  0  0  0  0  0  0  0  0  0  0
   35.4550   39.1760   26.1900 C   0  0  0  0  0  0  0  0  0  0  0  0
   36.4870   37.1220   23.1090 O   0  0  0  0  0  0  0  0  0  0  0  0
   36.9400   38.7370   26.2890 C   0  0  0  0  0  0  0  0  0  0  0  0
   36.3880   37.1150   24.5270 C   0  0  0  0  0  0  0  0  0  0  0  0
   34.5570   38.1610   27.2860 S   0  0  0  0  0  0  0  0  0  0  0  0
   34.5220   38.9710   28.4560 O   0  0  0  0  0  0  0  0  0  0  0  0
   32.6570   37.8750   26.8480 C   0  0  0  0  0  0  0  0  0  0  0  0
   35.7890   40.5950   25.8760 N   0  0  0  0  0  0  0  0  0  0  0  0
  2  5  1  0
  3 10  1  0
  3  5  1  0
  3  7  1  0
  4  6  1  0
  6  2  1  0
  7  1  2  0
  7  8  2  0
  9  7  1  0
M  END
$$$$

     RDKit          3D

 13 14  0  0  0  0  0  0  0  0999 V2000
   36.9770   38.1760   27.4260 C   0  0  0  0  0  0  0  0  0  0  0  0
   36.5690   37.1540   28.4930 C   0  0  0  0  0  0  0  0  0  0  0  0
   36.3340   37.7130   30.0520 S   0  0  0  0  0  0  0  0  0  0  0  0
   37.9550   38.7100   24.4600 C   0  0  0  0  0  0  0  0  0  0  0  0
   36.3480   39.1940   29.9600 O   0  0  0  0  0  0  0  0  0  0  0  0
   37.3970   36.8520   29.6540 N   0  0  0  0  0  0  0  0  0  0  0  0
   36.3430   38.2560   24.6690 P   0  0  0  0  0  0  0  0  0  0  0  0
   35.4900   39.6350   24.5480 O   0  0  0  0  0  0  0  0  0  0  0  0
   35.3060   37.4260   31.1680 O   0  0  0  0  0  0  0  0  0  0  0  0
   35.1580   36.8740   26.6490 C   0  0  0  0  0  0  0  0  0  0  0  0
   35.8620   36.0790   27.7770 C   0  0  0  0  0  0  0  0  0  0  0  0
   35.8920   37.3180   23.6250 O   0  0  0  0  0  0  0  0  0  0  0  0
   36.1310   37.7720   26.2540 C   0  0  0  0  0  0  0  0  0  0  0  0
  2  1  1  0
  2  6  1  0
  2  3  1  0
  3  9  2  0
  5  3  2  0
  6  3  1  0
  7  4  1  0
  8  7  1  0
 10 11  1  0
 11  2  1  0
 12  7  2  0
 13  7  1  0
 13 10  1  0
 13  1  1  0
M  END
$$$$

     RDKit          3D

 18 18  0  0  0  0  0  0  0  0999 V2000
   35.1650   37.2620   28.9460 C   0  0  0  0  0  0  0  0  0  0  0  0
   38.0460   39.9090   30.3910 C   0  0  0  0  0  0  0  0  0  0  0  0
   35.8380   36.6070   27.7690 C   0  0  0  0  0  0  0  0  0  0  0  0
   38.8720   40.7760   30.7550 O   0  0  0  0  0  0  0  0  0  0  0  0
   34.0950   34.5450   31.2210 C   0  0  0  0  0  0  0  0  0  0  0  0
   34.4220   35.4850   30.2880 C   0  0  0  0  0  0  0  0  0  0  0  0
   35.2010   37.8090   25.9380 O   0  0  0  0  0  0  0  0  0  0  0  0
   34.2030   36.3410   29.6210 N   0  0  0  0  0  0  0  0  0  0  0  0
   37.3030   38.4480   28.5790 N   0  0  0  0  0  0  0  0  0  0  0  0
   36.6720   37.2250   28.9360 C   0  0  0  0  0  0  0  0  0  0  0  0
   38.1520   39.3690   28.9690 C   0  0  0  0  0  0  0  0  0  0  0  0
   34.5420   34.9890   32.5760 N   0  0  0  0  0  0  0  0  0  0  0  0
   37.0180   39.0540   24.6410 O   0  0  0  0  0  0  0  0  0  0  0  0
   36.2110   36.8510   26.5540 C   0  0  0  0  0  0  0  0  0  0  0  0
   35.6990   38.2350   24.5260 P   0  0  0  0  0  0  0  0  0  0  0  0
   35.9820   36.9270   23.8040 O   0  0  0  0  0  0  0  0  0  0  0  0
   34.8850   39.1270   23.6830 O   0  0  0  0  0  0  0  0  0  0  0  0
   37.1750   39.4680   31.1950 O   0  0  0  0  0  0  0  0  0  0  0  0
  1  8  1  0
  2  4  2  0
  2 18  1  0
  3 14  1  0
  3 10  1  0
  3  1  1  0
  5 12  1  0
  6  5  1  0
  7 14  1  0
  8  6  2  3
  9 11  1  0
 10  9  1  0
 10  1  1  0
 11  2  1  0
 15 13  1  0
 15  7  1  0
 16 15  1  0
 17 15  2  0
M  END
$$$$

     RDKit          3D

 12 12  0  0  0  0  0  0  0  0999 V2000
   35.1450   40.0570   26.1270 C   0  0  0  0  0  0  0  0  0  0  0  0
   34.6980   37.4150   27.8800 O   0  0  0  0  0  0  0  0  0  0  0  0
   34.4890   39.2130   25.1010 C   0  0  0  0  0  0  0  0  0  0  0  0
   35.4830   38.5940   27.2990 P   0  0  0  0  0  0  0  0  0  0  0  0
   36.3750   39.2050   28.2740 O   0  0  0  0  0  0  0  0  0  0  0  0
   35.4090   38.4940   24.1660 C   0  0  0  0  0  0  0  0  0  0  0  0
   35.3090   41.1980   26.3940 O   0  0  0  0  0  0  0  0  0  0  0  0
   35.0710   38.1020   23.0520 O   0  0  0  0  0  0  0  0  0  0  0  0
   33.4820   40.0710   24.5900 O   0  0  0  0  0  0  0  0  0  0  0  0
   36.3960   37.8370   26.1930 O   0  0  0  0  0  0  0  0  0  0  0  0
   36.7390   38.1940   24.8270 C   0  0  0  0  0  0  0  0  0  0  0  0
   37.1650   37.0160   24.1940 F   0  0  0  0  0  0  0  0  0  0  0  0
  1  7  2  0
  1  4  1  0
  3  9  1  0
  3  1  1  0
  4  2  2  0
  4  5  1  0
  6 11  1  0
  6  3  1  0
  8  6  2  0
 10  4  1  0
 11 12  1  0
 11 10  1  0
M  END
$$$$

     RDKit          3D

 13 14  0  0  0  0  0  0  0  0999 V2000
   37.8750   37.7020   28.6220 C   0  0  0  0  0  0  0  0  0  0  0  0
   37.6610   42.8760   26.5310 C   0  0  0  0  0  0  0  0  0  0  0  0
   38.0220   37.6310   30.1010 C   0  0  0  0  0  0  0  0  0  0  0  0
   37.4240   41.5650   27.1360 C   0  0  0  0  0  0  0  0  0  0  0  0
   37.8230   40.2140   29.0990 C   0  0  0  0  0  0  0  0  0  0  0  0
   37.0340   39.2240   26.9860 C   0  0  0  0  0  0  0  0  0  0  0  0
   37.5130   41.5100   28.5160 C   0  0  0  0  0  0  0  0  0  0  0  0
   37.6520   39.0830   28.1970 N   0  0  0  0  0  0  0  0  0  0  0  0
   36.9990   40.4660   26.4190 C   0  0  0  0  0  0  0  0  0  0  0  0
   38.0300   40.1100   30.3940 N   0  0  0  0  0  0  0  0  0  0  0  0
   38.0330   38.7550   32.1610 C   0  0  0  0  0  0  0  0  0  0  0  0
   37.1680   42.5480   29.1960 O   0  0  0  0  0  0  0  0  0  0  0  0
   37.4930   38.7940   30.8170 C   0  0  0  0  0  0  0  0  0  0  0  0
  1  3  1  0
  2  4  1  0
  3 13  1  0
  4  7  2  0
  5  7  1  0
  5 10  1  0
  6  8  1  0
  7 12  1  0
  8  1  1  0
  8  5  1  0
  9  6  2  0
  9  4  1  0
 10 13  1  0
 13 11  1  0
M  END
$$$$

     RDKit          3D

 21 21  0  0  0  0  0  0  0  0999 V2000
   38.3040   33.2840   33.0870 C   0  0  0  0  0  0  0  0  0  0  0  0
   37.4490   35.8050   30.3300 C   0  0  0  0  0  0  0  0  0  0  0  0
   38.4110   40.7140   28.4790 C   0  0  0  0  0  0  0  0  0  0  0  0
   36.1560   41.0590   22.1790 N   0  0  0  0  0  0  0  0  0  0  0  0
   38.7320   40.5800   30.9340 C   0  0  0  0  0  0  0  0  0  0  0  0
   36.0680   33.8670   32.1520 C   0  0  0  0  0  0  0  0  0  0  0  0
   37.5160   34.2740   32.3680 N   0  0  0  0  0  0  0  0  0  0  0  0
   38.4600   41.2590   29.7390 C   0  0  0  0  0  0  0  0  0  0  0  0
   35.1520   40.8380   21.0880 C   0  0  0  0  0  0  0  0  0  0  0  0
   37.2140   40.3560   26.3420 C   0  0  0  0  0  0  0  0  0  0  0  0
   37.6250   40.3690   23.9380 C   0  0  0  0  0  0  0  0  0  0  0  0
   37.5320   37.0180   31.2640 C   0  0  0  0  0  0  0  0  0  0  0  0
   37.3240   40.5820   22.6670 C   0  0  0  0  0  0  0  0  0  0  0  0
   37.1500   41.1830   25.0620 C   0  0  0  0  0  0  0  0  0  0  0  0
   37.7400   39.5140   31.4400 C   0  0  0  0  0  0  0  0  0  0  0  0
   35.5810   41.1760   24.6670 C   0  0  0  0  0  0  0  0  0  0  0  0
   38.0940   34.6200   31.0610 C   0  0  0  0  0  0  0  0  0  0  0  0
   35.5400   41.2890   23.3660 N   0  0  0  0  0  0  0  0  0  0  0  0
   38.3320   40.2620   27.2440 N   0  0  0  0  0  0  0  0  0  0  0  0
   37.7360   38.3270   30.5320 C   0  0  0  0  0  0  0  0  0  0  0  0
   35.7660   40.6220   19.7240 C   0  0  0  0  0  0  0  0  0  0  0  0
  2 17  1  0
  2 12  1  0
  3  8  1  0
  4 13  1  0
  4 18  1  0
  5 15  1  0
  6  7  1  0
  7  1  1  0
  8  5  1  0
  9  4  1  0
 10 19  1  0
 11 14  1  0
 13 11  1  0
 14 10  1  0
 16 14  1  0
 17  7  1  0
 18 16  1  0
 19  3  1  0
 20 12  1  0
 20 15  1  0
 21  9  1  0
M  END
$$$$

     RDKit          3D

 12 13  0  0  0  0  0  0  0  0999 V2000
   36.7220   38.3180   25.3790 C   0  0  0  0  0  0  0  0  0  0  0  0
   33.2570   37.8270   26.6240 C   0  0  0  0  0  0  0  0  0  0  0  0
   34.9730   38.3000   23.6540 C   0  0  0  0  0  0  0  0  0  0  0  0
   33.4140   37.5590   27.9570 C   0  0  0  0  0  0  0  0  0  0  0  0
   34.6950   37.5410   28.5340 C   0  0  0  0  0  0  0  0  0  0  0  0
   32.2100   37.1770   26.2350 O   0  0  0  0  0  0  0  0  0  0  0  0
   35.6370   38.2440   26.4190 C   0  0  0  0  0  0  0  0  0  0  0  0
   36.2600   37.6310   24.0400 C   0  0  0  0  0  0  0  0  0  0  0  0
   34.2840   38.8310   24.7640 C   0  0  0  0  0  0  0  0  0  0  0  0
   37.3280   37.8440   23.1250 O   0  0  0  0  0  0  0  0  0  0  0  0
   35.7770   37.9560   27.7790 C   0  0  0  0  0  0  0  0  0  0  0  0
   34.3050   38.3970   25.9330 C   0  0  0  0  0  0  0  0  0  0  0  0
  1  7  1  0
  2  4  1  0
  3  8  1  0
  3  9  1  0
  4  5  2  0
  6  2  1  0
  7 11  2  0
  8 10  1  0
  8  1  1  0
  9 12  1  0
 11  5  1  0
 12  7  1  0
 12  2  2  0
M  END
$$$$

     RDKit          3D

 19 21  0  0  0  0  0  0  0  0999 V2000
   35.9910   36.6020   26.8460 N   0  0  0  0  0  0  0  0  0  0  0  0
   38.0500   39.8130   27.4030 O   0  0  0  0  0  0  0  0  0  0  0  0
   36.4380   37.0160   25.7010 C   0  0  0  0  0  0  0  0  0  0  0  0
   36.7510   38.4810   32.7230 C   0  0  0  0  0  0  0  0  0  0  0  0
   39.0560   40.2150   26.4260 C   0  0  0  0  0  0  0  0  0  0  0  0
   36.8640   38.2580   29.5770 C   0  0  0  0  0  0  0  0  0  0  0  0
   37.3680   38.4680   23.3570 C   0  0  0  0  0  0  0  0  0  0  0  0
   38.9260   39.1790   33.2990 C   0  0  0  0  0  0  0  0  0  0  0  0
   37.3600   38.0660   25.8880 C   0  0  0  0  0  0  0  0  0  0  0  0
   38.5020   39.7170   31.9670 C   0  0  0  0  0  0  0  0  0  0  0  0
   38.0980   38.5610   24.7000 C   0  0  0  0  0  0  0  0  0  0  0  0
   37.1340   39.1950   30.0270 N   0  0  0  0  0  0  0  0  0  0  0  0
   36.3090   37.5040   23.2310 C   0  0  0  0  0  0  0  0  0  0  0  0
   37.4090   38.8560   31.4230 C   0  0  0  0  0  0  0  0  0  0  0  0
   36.5110   37.2360   27.8200 C   0  0  0  0  0  0  0  0  0  0  0  0
   37.6160   38.7790   33.9110 C   0  0  0  0  0  0  0  0  0  0  0  0
   36.0180   36.6780   24.3780 C   0  0  0  0  0  0  0  0  0  0  0  0
   37.4310   38.3880   27.2770 C   0  0  0  0  0  0  0  0  0  0  0  0
   36.2650   37.0350   29.2580 C   0  0  0  0  0  0  0  0  0  0  0  0
  1 15  1  0
  3  9  1  0
  3  1  2  0
  4 16  1  0
  5  2  1  0
  6 12  1  0
  7 11  2  0
  8 16  1  0
  9 18  2  0
 10  8  1  0
 11  9  1  0
 12 14  1  0
 13  7  1  0
 13 17  2  0
 14 10  1  0
 14  4  1  0
 15 19  1  0
 17  3  1  0
 18  2  1  0
 18 15  1  0
 19  6  1  0
M  END
$$$$

     RDKit          3D

  9  9  0  0  0  0  0  0  0  0999 V2000
   34.4910   39.5820   22.5470 C   0  0  0  0  0  0  0  0  0  0  0  0
   34.1510   41.0060   22.8530 N   0  0  0  0  0  0  0  0  0  0  0  0
   35.1400   41.4540   23.6490 N   0  0  0  0  0  0  0  0  0  0  0  0
   35.4690   38.0220   23.0990 C   0  0  0  0  0  0  0  0  0  0  0  0
   36.0630   40.5430   24.0070 C   0  0  0  0  0  0  0  0  0  0  0  0
   35.7390   39.3720   23.0330 N   0  0  0  0  0  0  0  0  0  0  0  0
   33.2950   42.2160   22.5360 C   0  0  0  0  0  0  0  0  0  0  0  0
   35.7310   37.0290   21.8560 O   0  0  0  0  0  0  0  0  0  0  0  0
   35.1350   37.2250   23.7650 O   0  0  0  0  0  0  0  0  0  0  0  0
  1  2  1  0
  1  6  1  0
  2  3  1  0
  3  5  1  0
  4  9  1  0
  6  4  1  0
  6  5  1  0
  7  2  1  0
  8  4  2  0
M  END
$$$$

     RDKit          3D

  9  8  0  0  0  0  0  0  0  0999 V2000
   36.1160   42.2570   22.7940 O   0  0  0  0  0  0  0  0  0  0  0  0
   37.4570   40.7180   24.3110 N   0  0  0  0  0  0  0  0  0  0  0  0
   34.4510   40.3070   22.2050 O   0  0  0  0  0  0  0  0  0  0  0  0
   36.6960   40.9910   22.9670 P   0  0  0  0  0  0  0  0  0  0  0  0
   35.6480   39.7520   22.7180 C   0  0  0  0  0  0  0  0  0  0  0  0
   33.2590   38.3070   22.2920 C   0  0  0  0  0  0  0  0  0  0  0  0
   37.8010   40.7080   21.8360 O   0  0  0  0  0  0  0  0  0  0  0  0
   38.8320   41.0800   24.6350 C   0  0  0  0  0  0  0  0  0  0  0  0
   33.2670   39.6690   22.2560 C   0  0  0  0  0  0  0  0  0  0  0  0
  1  4  1  0
  2  8  1  0
  3  9  1  0
  3  5  1  0
  4  7  2  0
  4  2  1  0
  5  4  1  0
  9  6  2  0
M  END
$$$$

     RDKit          3D

 14 14  0  0  0  0  0  0  0  0999 V2000
   36.3940   37.7680   28.5920 C   0  0  0  0  0  0  0  0  0  0  0  0
   35.0530   38.8410   25.2610 C   0  0  0  0  0  0  0  0  0  0  0  0
   35.3260   37.5560   24.6130 C   0  0  0  0  0  0  0  0  0  0  0  0
   36.4110   36.7930   26.4580 C   0  0  0  0  0  0  0  0  0  0  0  0
   37.1670   36.7190   28.8510 O   0  0  0  0  0  0  0  0  0  0  0  0
   35.4180   38.9360   26.6130 C   0  0  0  0  0  0  0  0  0  0  0  0
   36.1400   37.9160   27.1850 C   0  0  0  0  0  0  0  0  0  0  0  0
   36.6790   37.9420   31.1380 C   0  0  0  0  0  0  0  0  0  0  0  0
   35.6840   36.7870   31.3280 N   0  0  0  0  0  0  0  0  0  0  0  0
   36.1360   38.6000   29.8400 C   0  0  0  0  0  0  0  0  0  0  0  0
   35.8910   36.5330   25.2010 C   0  0  0  0  0  0  0  0  0  0  0  0
   38.1650   39.2750   32.3140 O   0  0  0  0  0  0  0  0  0  0  0  0
   37.4800   38.3600   32.0570 C   0  0  0  0  0  0  0  0  0  0  0  0
   38.2320   36.6120   32.9280 S   0  0  0  0  0  0  0  0  0  0  0  0
  1  5  1  0
  1 10  1  0
  2  6  1  0
  3 11  1  0
  3  2  2  0
  4  7  1  0
  6  7  2  0
  7  1  1  0
  8  9  1  0
  8 13  1  0
 10  8  1  0
 11  4  2  0
 13 12  2  0
 13 14  1  0
M  END
$$$$
