
     RDKit          3D

 10 10  0  0  0  0  0  0  0  0999 V2000
   38.3810   39.1880   24.1160 C   0  0  0  0  0  0  0  0  0  0  0  0
   39.3600   40.6770   25.8420 O   0  0  0  0  0  0  0  0  0  0  0  0
   38.0010   37.0520   23.4340 C   0  0  0  0  0  0  0  0  0  0  0  0
   39.4260   39.8980   24.9120 C   0  0  0  0  0  0  0  0  0  0  0  0
   37.0880   37.2980   22.6820 N   0  0  0  0  0  0  0  0  0  0  0  0
   38.8890   37.9620   23.8100 C   0  0  0  0  0  0  0  0  0  0  0  0
   40.6480   39.5450   24.6630 O   0  0  0  0  0  0  0  0  0  0  0  0
   36.3660   38.5120   23.1670 C   0  0  0  0  0  0  0  0  0  0  0  0
   38.7210   35.7700   22.9430 N   0  0  0  0  0  0  0  0  0  0  0  0
   37.0250   39.2980   24.0510 C   0  0  0  0  0  0  0  0  0  0  0  0
  1  4  1  0
  3  9  1  0
  3  6  1  0
  4  2  1  0
  5  8  1  0
  5  3  1  0
  6  1  2  0
  7  4  2  0
  8 10  1  0
 10  1  1  0
M  END
$$$$

     RDKit          3D

 15 15  0  0  0  0  0  0  0  0999 V2000
   34.0480   37.2400   28.1390 C   0  0  0  0  0  0  0  0  0  0  0  0
   36.1340   36.3190   27.5080 C   0  0  0  0  0  0  0  0  0  0  0  0
   38.7190   36.5090   24.4360 P   0  0  0  0  0  0  0  0  0  0  0  0
   38.2420   35.1930   25.2610 O   0  0  0  0  0  0  0  0  0  0  0  0
   37.1220   37.9060   26.1160 O   0  0  0  0  0  0  0  0  0  0  0  0
   34.8330   36.0300   28.0140 N   0  0  0  0  0  0  0  0  0  0  0  0
   35.9550   37.6450   26.7440 C   0  0  0  0  0  0  0  0  0  0  0  0
   38.4510   38.3310   26.3630 C   0  0  0  0  0  0  0  0  0  0  0  0
   37.8630   37.4450   23.7550 O   0  0  0  0  0  0  0  0  0  0  0  0
   39.4930   37.4770   25.9640 O   0  0  0  0  0  0  0  0  0  0  0  0
   40.1210   36.3000   23.8120 O   0  0  0  0  0  0  0  0  0  0  0  0
   32.6810   36.8620   28.1280 O   0  0  0  0  0  0  0  0  0  0  0  0
   34.2900   39.4020   27.0230 O   0  0  0  0  0  0  0  0  0  0  0  0
   34.4660   37.9960   26.8540 C   0  0  0  0  0  0  0  0  0  0  0  0
   38.6980   39.2990   27.1180 O   0  0  0  0  0  0  0  0  0  0  0  0
  1 12  1  0
  2  6  1  0
  3  4  1  0
  3 10  1  0
  5  8  1  0
  6  1  1  0
  7  5  1  0
  7 14  1  0
  7  2  1  0
  8 15  2  0
  9  3  2  0
 10  8  1  0
 11  3  1  0
 14 13  1  0
 14  1  1  0
M  END
$$$$

     RDKit          3D

 12 12  0  0  0  0  0  0  0  0999 V2000
   37.0110   38.5110   26.0580 C   0  0  0  0  0  0  0  0  0  0  0  0
   35.5480   36.5320   27.5060 C   0  0  0  0  0  0  0  0  0  0  0  0
   37.3100   36.0700   26.0290 C   0  0  0  0  0  0  0  0  0  0  0  0
   34.9840   35.9220   29.4010 O   0  0  0  0  0  0  0  0  0  0  0  0
   38.4620   36.6650   25.3570 C   0  0  0  0  0  0  0  0  0  0  0  0
   38.9830   38.9190   24.4620 C   0  0  0  0  0  0  0  0  0  0  0  0
   35.3860   35.2580   28.2390 C   0  0  0  0  0  0  0  0  0  0  0  0
   36.1070   39.3790   25.9340 O   0  0  0  0  0  0  0  0  0  0  0  0
   37.2300   38.0410   27.3720 O   0  0  0  0  0  0  0  0  0  0  0  0
   36.9850   36.7730   27.3150 C   0  0  0  0  0  0  0  0  0  0  0  0
   34.7020   37.4180   27.5050 O   0  0  0  0  0  0  0  0  0  0  0  0
   38.2690   38.2000   25.4780 C   0  0  0  0  0  0  0  0  0  0  0  0
  1  9  1  0
  2  7  1  0
  3 10  1  0
  5 12  1  0
  5  3  1  0
  7  4  1  0
  8  1  2  0
 10  9  1  0
 10  2  1  0
 11  2  2  0
 12  6  1  0
 12  1  1  0
M  END
$$$$

     RDKit          3D

 10 11  0  0  0  0  0  0  0  0999 V2000
   36.9540   40.7090   23.9580 O   0  0  0  0  0  0  0  0  0  0  0  0
   39.3340   38.0270   23.8670 O   0  0  0  0  0  0  0  0  0  0  0  0
   38.0250   36.3860   25.6980 O   0  0  0  0  0  0  0  0  0  0  0  0
   38.8250   36.9490   24.7200 C   0  0  0  0  0  0  0  0  0  0  0  0
   39.4360   40.0420   22.9240 O   0  0  0  0  0  0  0  0  0  0  0  0
   37.4480   39.5090   24.1300 C   0  0  0  0  0  0  0  0  0  0  0  0
   37.3640   37.1340   24.7950 C   0  0  0  0  0  0  0  0  0  0  0  0
   36.9440   38.4500   24.8910 C   0  0  0  0  0  0  0  0  0  0  0  0
   36.3010   38.6710   25.9500 O   0  0  0  0  0  0  0  0  0  0  0  0
   38.9970   39.3350   24.3960 C   0  0  0  0  0  0  0  0  0  0  0  0
  2 10  1  0
  4  2  1  0
  4  7  1  0
  4  3  1  0
  6  1  1  0
  6 10  1  0
  6  8  1  0
  7  8  1  0
  7  3  1  0
  8  9  2  0
 10  5  1  0
M  END
$$$$

     RDKit          3D

 15 14  0  0  0  0  0  0  0  0999 V2000
   38.2670   35.6950   20.7810 C   0  0  0  0  0  0  0  0  0  0  0  0
   35.8040   37.1640   24.1180 C   0  0  0  0  0  0  0  0  0  0  0  0
   37.7260   40.7150   25.6940 O   0  0  0  0  0  0  0  0  0  0  0  0
   41.3930   40.8840   25.5700 C   0  0  0  0  0  0  0  0  0  0  0  0
   36.1270   35.3340   21.8810 C   0  0  0  0  0  0  0  0  0  0  0  0
   40.0490   40.9280   25.9810 C   0  0  0  0  0  0  0  0  0  0  0  0
   38.3220   37.8060   24.0750 C   0  0  0  0  0  0  0  0  0  0  0  0
   36.7960   37.5930   21.3050 O   0  0  0  0  0  0  0  0  0  0  0  0
   37.3020   36.3440   21.7870 C   0  0  0  0  0  0  0  0  0  0  0  0
   36.9300   37.9850   24.7090 C   0  0  0  0  0  0  0  0  0  0  0  0
   39.1390   36.5450   20.0680 C   0  0  0  0  0  0  0  0  0  0  0  0
   39.1620   38.7700   26.6190 O   0  0  0  0  0  0  0  0  0  0  0  0
   38.0800   36.5310   23.1020 C   0  0  0  0  0  0  0  0  0  0  0  0
   39.0410   39.2640   24.2670 C   0  0  0  0  0  0  0  0  0  0  0  0
   38.9560   39.8950   25.6890 C   0  0  0  0  0  0  0  0  0  0  0  0
  1  9  1  0
  2 10  1  0
  4  6  1  0
  7 13  1  0
  7 14  1  0
  7 10  1  0
  8  9  1  0
  9  5  1  0
  9 13  1  0
 11  1  1  0
 14 15  1  0
 15  3  1  0
 15  6  1  0
 15 12  1  0
M  END
$$$$

     RDKit          3D

  9  8  0  0  0  0  0  0  0  0999 V2000
   37.1930   36.0950   23.2880 F   0  0  0  0  0  0  0  0  0  0  0  0
   36.5370   37.2940   25.1590 F   0  0  0  0  0  0  0  0  0  0  0  0
   37.6400   40.4850   23.1900 C   0  0  0  0  0  0  0  0  0  0  0  0
   37.5650   37.0640   24.3360 C   0  0  0  0  0  0  0  0  0  0  0  0
   36.7820   40.1210   22.4390 O   0  0  0  0  0  0  0  0  0  0  0  0
   38.4320   41.5110   23.1480 O   0  0  0  0  0  0  0  0  0  0  0  0
   38.1440   39.5650   24.3900 C   0  0  0  0  0  0  0  0  0  0  0  0
   38.6020   36.6050   25.0870 F   0  0  0  0  0  0  0  0  0  0  0  0
   38.0100   38.3750   23.9040 C   0  0  0  0  0  0  0  0  0  0  0  0
  1  4  1  0
  3  7  1  0
  4  8  1  0
  4  2  1  0
  5  3  2  0
  6  3  1  0
  9  4  1  0
  9  7  1  0
M  END
$$$$

     RDKit          3D

  9  8  0  0  0  0  0  0  0  0999 V2000
   30.5350   35.0450   26.5660 N   0  0  0  0  0  0  0  0  0  0  0  0
   36.7050   36.2130   25.8120 Br  0  0  0  0  0  0  0  0  0  0  0  0
   31.7060   35.3310   26.7440 C   0  0  0  0  0  0  0  0  0  0  0  0
   34.1260   35.7340   26.6370 C   0  0  0  0  0  0  0  0  0  0  0  0
   34.5660   37.4840   24.8200 O   0  0  0  0  0  0  0  0  0  0  0  0
   32.2740   36.8040   25.2660 S   0  0  0  0  0  0  0  0  0  0  0  0
   32.8080   35.8190   26.5360 C   0  0  0  0  0  0  0  0  0  0  0  0
   32.0970   34.9550   28.2020 C   0  0  0  0  0  0  0  0  0  0  0  0
   34.8950   36.6700   25.5850 C   0  0  0  0  0  0  0  0  0  0  0  0
  1  3  2  0
  3  8  1  0
  5  9  2  0
  6  7  2  0
  7  4  1  0
  7  3  1  0
  9  2  1  0
  9  4  1  0
M  END
$$$$

     RDKit          3D

 10 10  0  0  0  0  0  0  0  0999 V2000
   39.0840   40.8370   24.1210 C   0  0  0  0  0  0  0  0  0  0  0  0
   39.8800   38.7970   25.1390 C   0  0  0  0  0  0  0  0  0  0  0  0
   38.8160   41.9610   24.4790 C   0  0  0  0  0  0  0  0  0  0  0  0
   39.1590   42.9230   25.1390 O   0  0  0  0  0  0  0  0  0  0  0  0
   38.4440   40.4850   25.3880 C   0  0  0  0  0  0  0  0  0  0  0  0
   39.1440   36.4260   24.6800 C   0  0  0  0  0  0  0  0  0  0  0  0
   40.2960   39.9510   24.2610 C   0  0  0  0  0  0  0  0  0  0  0  0
   40.1220   37.4880   24.4760 C   0  0  0  0  0  0  0  0  0  0  0  0
   38.3720   39.0130   25.2260 C   0  0  0  0  0  0  0  0  0  0  0  0
   41.0930   37.2930   23.7750 O   0  0  0  0  0  0  0  0  0  0  0  0
  1  7  1  0
  1  3  1  0
  1  5  1  0
  2  8  1  0
  2  9  1  0
  3  4  2  0
  7  2  1  0
  8  6  1  0
  9  5  1  0
 10  8  2  0
M  END
$$$$

     RDKit          3D

  9  8  0  0  0  0  0  0  0  0999 V2000
   35.7780   36.6090   25.5180 O   0  0  0  0  0  0  0  0  0  0  0  0
   38.0500   35.3270   24.7710 O   0  0  0  0  0  0  0  0  0  0  0  0
   40.6550   38.3240   25.3860 C   0  0  0  0  0  0  0  0  0  0  0  0
   37.5600   35.9800   27.2690 O   0  0  0  0  0  0  0  0  0  0  0  0
   39.4530   38.5520   26.0030 C   0  0  0  0  0  0  0  0  0  0  0  0
   37.2410   36.4830   25.8530 P   0  0  0  0  0  0  0  0  0  0  0  0
   39.3210   40.0330   26.3440 C   0  0  0  0  0  0  0  0  0  0  0  0
   37.1120   38.8760   26.3910 O   0  0  0  0  0  0  0  0  0  0  0  0
   38.1290   38.0190   25.4790 C   0  0  0  0  0  0  0  0  0  0  0  0
  1  6  1  0
  2  6  2  0
  3  5  1  0
  5  7  1  0
  6  4  1  0
  9  6  1  0
  9  5  1  0
  9  8  1  0
M  END
$$$$

     RDKit          3D

 14 14  0  0  0  0  0  0  0  0999 V2000
   36.3760   37.7620   26.5540 C   0  0  0  0  0  0  0  0  0  0  0  0
   37.3430   37.8450   25.7770 O   0  0  0  0  0  0  0  0  0  0  0  0
   33.5810   34.6240   31.8670 N   0  0  0  0  0  0  0  0  0  0  0  0
   34.6540   36.1270   28.9400 C   0  0  0  0  0  0  0  0  0  0  0  0
   32.4580   36.3170   30.0320 C   0  0  0  0  0  0  0  0  0  0  0  0
   35.3750   34.4230   30.6230 O   0  0  0  0  0  0  0  0  0  0  0  0
   31.2480   36.6440   30.2530 C   0  0  0  0  0  0  0  0  0  0  0  0
   35.2700   38.0110   26.1330 O   0  0  0  0  0  0  0  0  0  0  0  0
   34.0340   34.0100   32.1760 N   0  0  0  0  0  0  0  0  0  0  0  0
   33.2430   37.0280   28.7480 S   0  0  0  0  0  0  0  0  0  0  0  0
   34.5110   35.2830   30.1060 C   0  0  0  0  0  0  0  0  0  0  0  0
   35.7640   36.1530   28.1960 N   0  0  0  0  0  0  0  0  0  0  0  0
   36.5960   37.3120   27.9740 C   0  0  0  0  0  0  0  0  0  0  0  0
   33.3820   35.4370   30.7230 C   0  0  0  0  0  0  0  0  0  0  0  0
  1 13  1  0
  2  1  2  0
  3  9  2  0
  4 11  2  0
  5  7  1  0
  5 14  2  0
  8  1  1  0
 10  4  1  0
 10  5  1  0
 11  6  1  0
 11 14  1  0
 12  4  1  0
 13 12  1  0
 14  3  1  0
M  END
$$$$

     RDKit          3D

  8  7  0  0  0  0  0  0  0  0999 V2000
   39.2050   37.2780   23.5600 C   0  0  0  0  0  0  0  0  0  0  0  0
   39.3470   38.4860   24.5010 C   0  0  0  0  0  0  0  0  0  0  0  0
   41.6990   38.2470   24.5880 O   0  0  0  0  0  0  0  0  0  0  0  0
   36.8980   37.3510   24.5650 O   0  0  0  0  0  0  0  0  0  0  0  0
   41.5150   40.5300   24.2810 C   0  0  0  0  0  0  0  0  0  0  0  0
   39.2620   37.9990   25.9340 N   0  0  0  0  0  0  0  0  0  0  0  0
   40.5240   39.1870   24.4750 C   0  0  0  0  0  0  0  0  0  0  0  0
   38.0520   36.6180   24.2960 C   0  0  0  0  0  0  0  0  0  0  0  0
  1  8  1  0
  1  2  1  0
  2  6  1  0
  7  5  1  0
  7  2  1  0
  7  3  1  0
  8  4  1  0
M  END
$$$$

     RDKit          3D

 12 12  0  0  0  0  0  0  0  0999 V2000
   36.3580   37.9500   26.8950 O   0  0  0  0  0  0  0  0  0  0  0  0
   35.8920   36.4600   28.8260 C   0  0  0  0  0  0  0  0  0  0  0  0
   38.2880   36.1990   31.7300 O   0  0  0  0  0  0  0  0  0  0  0  0
   35.4770   36.7350   31.2020 O   0  0  0  0  0  0  0  0  0  0  0  0
   38.6190   36.6310   29.3770 N   0  0  0  0  0  0  0  0  0  0  0  0
   38.1260   36.7880   28.0740 C   0  0  0  0  0  0  0  0  0  0  0  0
   36.3770   36.8560   30.0660 C   0  0  0  0  0  0  0  0  0  0  0  0
   39.0460   36.7770   26.9170 C   0  0  0  0  0  0  0  0  0  0  0  0
   38.6810   36.1980   25.8030 N   0  0  0  0  0  0  0  0  0  0  0  0
   36.7330   37.0110   27.8250 C   0  0  0  0  0  0  0  0  0  0  0  0
   37.7770   36.6010   30.5050 C   0  0  0  0  0  0  0  0  0  0  0  0
   34.6340   36.1600   28.4960 O   0  0  0  0  0  0  0  0  0  0  0  0
  2 12  1  0
  2  7  1  0
  5 11  1  0
  6  5  2  0
  7 11  1  0
  7  4  1  0
  8  6  1  0
  9  8  2  0
 10  1  1  0
 10  6  1  0
 10  2  1  0
 11  3  2  0
M  END
$$$$

     RDKit          3D

  5  4  0  0  0  0  0  0  0  0999 V2000
   37.8240   36.6380   23.4790 N   0  0  0  0  0  0  0  0  0  0  0  0
   38.0340   38.9110   24.2280 C   0  0  0  0  0  0  0  0  0  0  0  0
   37.0170   37.2710   25.5870 O   0  0  0  0  0  0  0  0  0  0  0  0
   38.1470   37.2420   24.7660 C   0  0  0  0  0  0  0  0  0  0  0  0
   39.0020   39.2050   23.6320 O   0  0  0  0  0  0  0  0  0  0  0  0
  2  4  1  0
  4  1  1  0
  4  3  1  0
  5  2  1  0
M  END
$$$$

     RDKit          3D

 11 11  0  0  0  0  0  0  0  0999 V2000
   38.1460   39.0810   23.7960 C   0  0  0  0  0  0  0  0  0  0  0  0
   40.0700   37.6920   20.7930 C   0  0  0  0  0  0  0  0  0  0  0  0
   36.7690   37.9120   22.2000 O   0  0  0  0  0  0  0  0  0  0  0  0
   38.8470   38.4440   24.9590 C   0  0  0  0  0  0  0  0  0  0  0  0
   36.9680   38.9310   22.8690 C   0  0  0  0  0  0  0  0  0  0  0  0
   39.7420   39.3580   25.5600 O   0  0  0  0  0  0  0  0  0  0  0  0
   36.6010   40.1430   22.5460 O   0  0  0  0  0  0  0  0  0  0  0  0
   39.6860   37.2580   24.4340 C   0  0  0  0  0  0  0  0  0  0  0  0
   39.4510   37.0120   23.0890 C   0  0  0  0  0  0  0  0  0  0  0  0
   39.2570   39.3600   22.7300 C   0  0  0  0  0  0  0  0  0  0  0  0
   39.5700   38.0040   22.1420 C   0  0  0  0  0  0  0  0  0  0  0  0
  1  5  1  0
  1  4  1  0
  3  5  2  0
  4  6  1  0
  7  5  1  0
  8  4  1  0
  9  8  1  0
 10  1  1  0
 11  2  1  0
 11 10  1  0
 11  9  1  0
M  END
$$$$

     RDKit          3D

 11 10  0  0  0  0  0  0  0  0999 V2000
   39.7260   36.2630   25.2300 O   0  0  0  0  0  0  0  0  0  0  0  0
   37.6680   39.6600   21.3230 O   0  0  0  0  0  0  0  0  0  0  0  0
   37.3210   37.5140   25.5220 C   0  0  0  0  0  0  0  0  0  0  0  0
   39.1440   36.7150   24.0950 C   0  0  0  0  0  0  0  0  0  0  0  0
   36.1960   38.8480   23.3910 O   0  0  0  0  0  0  0  0  0  0  0  0
   37.2790   35.9420   22.8960 O   0  0  0  0  0  0  0  0  0  0  0  0
   38.3560   39.1880   22.3740 C   0  0  0  0  0  0  0  0  0  0  0  0
   37.5890   36.9560   23.9980 C   0  0  0  0  0  0  0  0  0  0  0  0
   37.4780   38.2220   23.1160 C   0  0  0  0  0  0  0  0  0  0  0  0
   39.5680   39.2680   22.4250 O   0  0  0  0  0  0  0  0  0  0  0  0
   38.4250   37.9840   26.2680 O   0  0  0  0  0  0  0  0  0  0  0  0
  2  7  2  0
  3 11  1  0
  4  1  1  0
  6  8  1  0
  7 10  1  0
  7  9  1  0
  8  4  1  0
  8  3  1  0
  9  5  1  0
  9  8  1  0
M  END
$$$$

     RDKit          3D

 11 11  0  0  0  0  0  0  0  0999 V2000
   41.3070   40.3120   24.9850 C   0  0  0  0  0  0  0  0  0  0  0  0
   39.7320   42.0170   23.6030 O   0  0  0  0  0  0  0  0  0  0  0  0
   39.7840   40.4510   25.4590 C   0  0  0  0  0  0  0  0  0  0  0  0
   38.6390   36.8740   24.3820 C   0  0  0  0  0  0  0  0  0  0  0  0
   38.8570   39.2570   25.3620 C   0  0  0  0  0  0  0  0  0  0  0  0
   37.4480   39.4960   25.9130 C   0  0  0  0  0  0  0  0  0  0  0  0
   36.3620   38.5700   25.5990 C   0  0  0  0  0  0  0  0  0  0  0  0
   37.2610   36.8400   24.0030 C   0  0  0  0  0  0  0  0  0  0  0  0
   36.2910   37.3640   24.8930 C   0  0  0  0  0  0  0  0  0  0  0  0
   39.3040   37.9730   24.9900 C   0  0  0  0  0  0  0  0  0  0  0  0
   39.0250   41.2060   24.4830 N   0  0  0  0  0  0  0  0  0  0  0  0
  2 11  1  0
  3  1  1  0
  4 10  1  0
  5  3  1  0
  5  6  2  0
  7  6  1  0
  8  4  2  0
  8  9  1  0
  9  7  2  0
 10  5  1  0
 11  3  1  0
M  END
$$$$

     RDKit          3D

 22 26  0  0  0  0  0  0  0  0999 V2000
   39.2280   37.6250   24.7220 O   0  0  0  0  0  0  0  0  0  0  0  0
   32.4520   35.8940   26.8890 C   0  0  0  0  0  0  0  0  0  0  0  0
   36.8640   37.0360   21.0240 O   0  0  0  0  0  0  0  0  0  0  0  0
   35.5150   37.4500   22.9810 C   0  0  0  0  0  0  0  0  0  0  0  0
   31.1700   35.6910   30.2190 O   0  0  0  0  0  0  0  0  0  0  0  0
   36.9230   37.6610   25.0650 N   0  0  0  0  0  0  0  0  0  0  0  0
   37.8900   37.6140   27.1240 O   0  0  0  0  0  0  0  0  0  0  0  0
   30.0460   35.2290   29.5140 C   0  0  0  0  0  0  0  0  0  0  0  0
   35.7480   37.4920   26.9170 N   0  0  0  0  0  0  0  0  0  0  0  0
   31.6690   35.7150   27.9730 C   0  0  0  0  0  0  0  0  0  0  0  0
   34.1160   36.8220   28.3410 C   0  0  0  0  0  0  0  0  0  0  0  0
   35.3480   37.4000   28.2540 C   0  0  0  0  0  0  0  0  0  0  0  0
   33.7270   36.5180   27.0680 C   0  0  0  0  0  0  0  0  0  0  0  0
   38.0590   37.4800   24.2200 C   0  0  0  0  0  0  0  0  0  0  0  0
   33.3320   36.6020   29.4840 C   0  0  0  0  0  0  0  0  0  0  0  0
   36.8000   36.8860   22.2830 C   0  0  0  0  0  0  0  0  0  0  0  0
   37.9480   36.6430   23.0460 N   0  0  0  0  0  0  0  0  0  0  0  0
   34.7150   37.0500   25.9640 C   0  0  0  0  0  0  0  0  0  0  0  0
   32.1190   36.0140   29.2680 C   0  0  0  0  0  0  0  0  0  0  0  0
   36.9490   37.7150   26.3610 C   0  0  0  0  0  0  0  0  0  0  0  0
   35.5260   37.2940   24.5620 C   0  0  0  0  0  0  0  0  0  0  0  0
   30.4260   35.0670   28.1100 C   0  0  0  0  0  0  0  0  0  0  0  0
  2 13  1  0
  2 10  2  0
  3 16  2  0
  6 20  1  0
  8  5  1  0
  9 12  1  0
 10 22  1  0
 10 19  1  0
 11 15  1  0
 12 11  2  0
 13 11  1  0
 14  1  2  0
 14  6  1  0
 16  4  1  0
 16 17  1  0
 17 14  1  0
 18  9  1  0
 18 13  2  0
 19 15  2  0
 19  5  1  0
 20  9  1  0
 20  7  2  0
 21  4  1  0
 21  6  1  0
 21 18  1  0
 22  8  1  0
M  END
$$$$

     RDKit          3D

 22 25  0  0  0  0  0  0  0  0999 V2000
   35.8380   37.8630   24.8810 C   0  0  0  0  0  0  0  0  0  0  0  0
   39.9040   36.3690   21.5520 C   0  0  0  0  0  0  0  0  0  0  0  0
   32.9420   34.7320   32.1000 C   0  0  0  0  0  0  0  0  0  0  0  0
   37.8740   37.8890   27.7100 C   0  0  0  0  0  0  0  0  0  0  0  0
   35.6400   34.5250   30.9070 C   0  0  0  0  0  0  0  0  0  0  0  0
   38.4680   38.4230   26.8040 C   0  0  0  0  0  0  0  0  0  0  0  0
   35.5160   37.0090   27.4800 N   0  0  0  0  0  0  0  0  0  0  0  0
   38.0180   38.0620   21.7360 C   0  0  0  0  0  0  0  0  0  0  0  0
   39.0650   39.2530   26.0970 O   0  0  0  0  0  0  0  0  0  0  0  0
   37.0470   37.8010   23.8190 C   0  0  0  0  0  0  0  0  0  0  0  0
   35.1150   33.4280   31.7830 C   0  0  0  0  0  0  0  0  0  0  0  0
   36.2650   37.5400   26.3640 C   0  0  0  0  0  0  0  0  0  0  0  0
   38.2850   36.4930   23.7090 S   0  0  0  0  0  0  0  0  0  0  0  0
   36.0030   36.9700   28.7070 C   0  0  0  0  0  0  0  0  0  0  0  0
   35.2140   36.6240   29.7450 N   0  0  0  0  0  0  0  0  0  0  0  0
   34.6770   35.6760   30.6150 C   0  0  0  0  0  0  0  0  0  0  0  0
   37.3810   37.4040   28.9510 C   0  0  0  0  0  0  0  0  0  0  0  0
   38.7310   36.9140   22.1970 N   0  0  0  0  0  0  0  0  0  0  0  0
   37.4310   37.8860   26.6570 N   0  0  0  0  0  0  0  0  0  0  0  0
   33.6130   33.5390   32.1020 C   0  0  0  0  0  0  0  0  0  0  0  0
   37.1100   38.5750   22.6330 C   0  0  0  0  0  0  0  0  0  0  0  0
   33.4850   35.8420   31.3200 C   0  0  0  0  0  0  0  0  0  0  0  0
  2 18  1  0
  3 20  1  0
  4 17  2  0
  5 11  1  0
  6  4  1  0
  7 14  2  0
  8 18  1  0
  8 21  1  0
  9  6  2  0
 10  1  1  0
 11 20  1  0
 12  1  1  0
 12 19  1  0
 12  7  1  0
 13 10  1  0
 14 17  1  0
 14 15  1  0
 15 16  1  0
 16  5  2  0
 16 22  1  0
 18 13  1  0
 19  6  1  0
 19  4  1  0
 21 10  2  0
 22  3  2  0
M  END
$$$$

     RDKit          3D

 15 16  0  0  0  0  0  0  0  0999 V2000
   33.9830   40.2160   25.1250 C   0  0  0  0  0  0  0  0  0  0  0  0
   35.6160   39.6310   27.2290 C   0  0  0  0  0  0  0  0  0  0  0  0
   37.6150   35.1560   28.0250 O   0  0  0  0  0  0  0  0  0  0  0  0
   37.6270   34.6210   30.4260 C   0  0  0  0  0  0  0  0  0  0  0  0
   34.9090   41.1550   25.6630 C   0  0  0  0  0  0  0  0  0  0  0  0
   36.5690   37.8900   28.0430 C   0  0  0  0  0  0  0  0  0  0  0  0
   35.6740   40.9170   26.7720 N   0  0  0  0  0  0  0  0  0  0  0  0
   38.1290   36.9000   29.5400 C   0  0  0  0  0  0  0  0  0  0  0  0
   37.7520   35.5270   29.2140 C   0  0  0  0  0  0  0  0  0  0  0  0
   34.2660   38.8700   25.4220 C   0  0  0  0  0  0  0  0  0  0  0  0
   35.0510   38.5690   26.5100 C   0  0  0  0  0  0  0  0  0  0  0  0
   36.3310   39.2850   28.4030 N   0  0  0  0  0  0  0  0  0  0  0  0
   37.5350   40.0980   28.6870 C   0  0  0  0  0  0  0  0  0  0  0  0
   38.0310   37.6390   28.1670 C   0  0  0  0  0  0  0  0  0  0  0  0
   35.8020   37.3810   26.9420 C   0  0  0  0  0  0  0  0  0  0  0  0
  1 10  1  0
  1  5  1  0
  2 11  1  0
  2 12  1  0
  3  9  2  0
  5  7  1  0
  6 14  1  0
  6 12  1  0
  7  2  1  0
  9  8  1  0
  9  4  1  0
 10 11  2  0
 11 15  1  0
 12 13  1  0
 14  8  1  0
 15  6  1  0
M  END
$$$$

     RDKit          3D

 34 38  0  0  0  0  0  0  0  0999 V2000
   34.6490   32.9500   34.6780 C   0  0  0  0  0  0  0  0  0  0  0  0
   34.6130   33.5010   36.0990 C   0  0  0  0  0  0  0  0  0  0  0  0
   40.5870   37.1250   20.9390 F   0  0  0  0  0  0  0  0  0  0  0  0
   37.2850   37.9050   22.4790 O   0  0  0  0  0  0  0  0  0  0  0  0
   32.7140   35.4100   31.2660 C   0  0  0  0  0  0  0  0  0  0  0  0
   36.7410   33.4980   29.8780 C   0  0  0  0  0  0  0  0  0  0  0  0
   34.4260   36.2190   29.7430 N   0  0  0  0  0  0  0  0  0  0  0  0
   31.8140   35.1620   32.8450 S   0  0  0  0  0  0  0  0  0  0  0  0
   39.1830   39.0230   19.8520 O   0  0  0  0  0  0  0  0  0  0  0  0
   32.7760   35.0500   35.4560 C   0  0  0  0  0  0  0  0  0  0  0  0
   34.0760   35.6160   30.8340 C   0  0  0  0  0  0  0  0  0  0  0  0
   32.1750   36.0000   35.8980 O   0  0  0  0  0  0  0  0  0  0  0  0
   35.5560   36.0050   29.2940 C   0  0  0  0  0  0  0  0  0  0  0  0
   37.8040   33.1160   30.8860 C   0  0  0  0  0  0  0  0  0  0  0  0
   36.5760   37.7420   24.7610 S   0  0  0  0  0  0  0  0  0  0  0  0
   38.9290   39.9050   22.1780 O   0  0  0  0  0  0  0  0  0  0  0  0
   35.8920   37.2170   27.1560 C   0  0  0  0  0  0  0  0  0  0  0  0
   33.8020   34.3980   36.3830 N   0  0  0  0  0  0  0  0  0  0  0  0
   34.5980   33.9870   32.3960 O   0  0  0  0  0  0  0  0  0  0  0  0
   35.2700   34.9330   31.4080 C   0  0  0  0  0  0  0  0  0  0  0  0
   37.3190   33.2830   28.4990 C   0  0  0  0  0  0  0  0  0  0  0  0
   38.9800   37.9660   25.5190 C   0  0  0  0  0  0  0  0  0  0  0  0
   38.2770   38.1020   24.4190 C   0  0  0  0  0  0  0  0  0  0  0  0
   36.2200   34.9280   30.1270 C   0  0  0  0  0  0  0  0  0  0  0  0
   38.4220   37.7780   23.2120 N   0  0  0  0  0  0  0  0  0  0  0  0
   38.6350   35.7730   21.1060 C   0  0  0  0  0  0  0  0  0  0  0  0
   36.9330   37.4690   26.3960 C   0  0  0  0  0  0  0  0  0  0  0  0
   34.0930   34.0000   33.6740 C   0  0  0  0  0  0  0  0  0  0  0  0
   35.7040   37.5420   28.4160 N   0  0  0  0  0  0  0  0  0  0  0  0
   38.6270   38.5080   22.1190 C   0  0  0  0  0  0  0  0  0  0  0  0
   38.2280   37.6360   26.6070 C   0  0  0  0  0  0  0  0  0  0  0  0
   39.3240   36.9330   20.5220 C   0  0  0  0  0  0  0  0  0  0  0  0
   38.5180   38.2170   20.6520 C   0  0  0  0  0  0  0  0  0  0  0  0
   32.9580   34.6870   34.0990 C   0  0  0  0  0  0  0  0  0  0  0  0
  1  2  1  0
  2 18  2  0
  4 25  1  0
  5  8  1  0
  6 14  1  0
  7 11  1  0
 10 12  2  0
 10 18  1  0
 11  5  1  0
 11 20  1  0
 13  7  2  0
 13 24  1  0
 15 27  1  0
 17 29  1  0
 19 28  1  0
 20 19  1  0
 21  6  1  0
 22 31  1  0
 23 15  1  0
 23 22  2  0
 24  6  1  0
 24 20  1  0
 25 23  1  0
 27 31  2  0
 27 17  1  0
 28 34  1  0
 28  1  1  0
 29 13  1  0
 30 16  1  0
 30  4  1  0
 30 25  1  0
 32 33  1  0
 32  3  1  0
 32 26  1  0
 33  9  1  0
 33 30  1  0
 34  8  1  0
 34 10  1  0
M  END
$$$$
