
     RDKit          3D

 21 21  0  0  0  0  0  0  0  0999 V2000
   35.7050   32.6920   28.4500 C   0  0  0  0  0  0  0  0  0  0  0  0
   36.3710   32.4140   29.7430 C   0  0  0  0  0  0  0  0  0  0  0  0
   35.2910   35.5050   25.5970 C   0  0  0  0  0  0  0  0  0  0  0  0
   36.0350   34.4720   26.2720 C   0  0  0  0  0  0  0  0  0  0  0  0
   37.3090   36.6180   26.4150 N   0  0  0  0  0  0  0  0  0  0  0  0
   39.1000   39.0620   23.9890 C   0  0  0  0  0  0  0  0  0  0  0  0
   36.0380   35.9620   21.6760 C   0  0  0  0  0  0  0  0  0  0  0  0
   38.1160   39.0900   22.7820 C   0  0  0  0  0  0  0  0  0  0  0  0
   37.1860   34.7020   28.2720 C   0  0  0  0  0  0  0  0  0  0  0  0
   35.8890   34.1420   27.7690 C   0  0  0  0  0  0  0  0  0  0  0  0
   37.7380   35.9310   27.5260 C   0  0  0  0  0  0  0  0  0  0  0  0
   37.5370   34.6300   29.6010 C   0  0  0  0  0  0  0  0  0  0  0  0
   36.9920   33.5730   30.4590 C   0  0  0  0  0  0  0  0  0  0  0  0
   38.3500   39.9460   21.8840 O   0  0  0  0  0  0  0  0  0  0  0  0
   38.6850   36.5760   27.8780 O   0  0  0  0  0  0  0  0  0  0  0  0
   38.5540   38.5830   25.3540 C   0  0  0  0  0  0  0  0  0  0  0  0
   38.2430   37.0870   25.3710 C   0  0  0  0  0  0  0  0  0  0  0  0
   35.6120   35.6080   24.1400 N   0  0  0  0  0  0  0  0  0  0  0  0
   36.4290   33.9170   22.7810 O   0  0  0  0  0  0  0  0  0  0  0  0
   35.9700   35.0740   22.8830 C   0  0  0  0  0  0  0  0  0  0  0  0
   37.0250   38.4930   22.9420 O   0  0  0  0  0  0  0  0  0  0  0  0
  1  2  2  0
  2 13  1  0
  3  4  1  0
  5 11  1  0
  6 16  1  0
  7 20  1  0
  8 21  1  0
  8  6  1  0
  9 11  1  0
  9 12  1  0
 10  4  1  0
 10  9  1  0
 10  1  1  0
 11 15  2  0
 12 13  1  0
 14  8  2  0
 16 17  1  0
 17  5  1  0
 18  3  1  0
 19 20  2  0
 20 18  1  0
M  END
$$$$

     RDKit          3D

 29 31  0  0  0  0  0  0  0  0999 V2000
   34.2550   37.4390   24.3810 N   0  0  0  0  0  0  0  0  0  0  0  0
   34.6920   35.1060   23.4640 C   0  0  0  0  0  0  0  0  0  0  0  0
   38.4670   35.5530   29.1480 C   0  0  0  0  0  0  0  0  0  0  0  0
   38.6330   36.1150   26.9420 O   0  0  0  0  0  0  0  0  0  0  0  0
   36.2220   32.8180   28.1010 C   0  0  0  0  0  0  0  0  0  0  0  0
   40.5140   39.3450   30.6650 C   0  0  0  0  0  0  0  0  0  0  0  0
   32.0860   35.8970   22.1060 C   0  0  0  0  0  0  0  0  0  0  0  0
   39.5830   35.7620   30.1010 N   0  0  0  0  0  0  0  0  0  0  0  0
   39.8220   36.9240   31.2640 P   0  0  0  0  0  0  0  0  0  0  0  0
   38.0700   34.0130   29.3300 C   0  0  0  0  0  0  0  0  0  0  0  0
   34.2550   38.0880   26.5220 C   0  0  0  0  0  0  0  0  0  0  0  0
   35.3870   35.8660   25.7830 C   0  0  0  0  0  0  0  0  0  0  0  0
   41.1850   36.7590   31.7300 O   0  0  0  0  0  0  0  0  0  0  0  0
   29.8100   35.2770   21.6030 C   0  0  0  0  0  0  0  0  0  0  0  0
   30.7020   36.3960   21.9900 C   0  0  0  0  0  0  0  0  0  0  0  0
   35.8790   31.4480   28.6670 C   0  0  0  0  0  0  0  0  0  0  0  0
   36.0490   34.8780   26.6840 C   0  0  0  0  0  0  0  0  0  0  0  0
   37.0780   33.8420   28.4950 N   0  0  0  0  0  0  0  0  0  0  0  0
   33.5660   38.1900   25.3840 C   0  0  0  0  0  0  0  0  0  0  0  0
   35.2200   33.2880   26.8810 S   0  0  0  0  0  0  0  0  0  0  0  0
   36.6780   35.2680   27.7560 C   0  0  0  0  0  0  0  0  0  0  0  0
   35.8950   35.3740   24.3740 C   0  0  0  0  0  0  0  0  0  0  0  0
   38.9120   36.9790   32.2960 O   0  0  0  0  0  0  0  0  0  0  0  0
   35.0240   35.1360   22.0770 O   0  0  0  0  0  0  0  0  0  0  0  0
   33.7020   36.2630   23.7830 C   0  0  0  0  0  0  0  0  0  0  0  0
   33.1350   36.8960   22.5340 C   0  0  0  0  0  0  0  0  0  0  0  0
   39.6920   38.3380   30.4940 O   0  0  0  0  0  0  0  0  0  0  0  0
   35.5010   37.2480   26.4380 C   0  0  0  0  0  0  0  0  0  0  0  0
   37.9750   35.7010   27.9100 C   0  0  0  0  0  0  0  0  0  0  0  0
  1 19  1  0
  2 24  1  0
  2 25  1  0
  2 22  1  0
  3 10  1  0
  3  8  1  0
  4 29  2  0
  5 18  1  0
  5 16  1  0
  7 26  1  0
  8  9  1  0
  9 13  2  0
  9 23  1  0
 12 22  1  0
 12 28  1  0
 12 17  1  0
 14 15  1  0
 15  7  1  0
 17 20  1  0
 17 21  1  0
 18 10  1  0
 19 11  1  0
 20  5  1  0
 21 29  1  0
 21 18  1  0
 25 26  1  0
 25  1  1  0
 27  6  1  0
 27  9  1  0
 28 11  1  0
 29  3  1  0
M  END
$$$$

     RDKit          3D

 21 23  0  0  0  0  0  0  0  0999 V2000
   35.7410   34.5340   21.6450 C   0  0  0  0  0  0  0  0  0  0  0  0
   39.9610   34.8040   31.2820 C   0  0  0  0  0  0  0  0  0  0  0  0
   39.0910   33.7350   31.2360 C   0  0  0  0  0  0  0  0  0  0  0  0
   35.7800   34.7940   26.1140 S   0  0  0  0  0  0  0  0  0  0  0  0
   36.1270   37.5870   22.8770 C   0  0  0  0  0  0  0  0  0  0  0  0
   37.7670   33.8760   30.7410 C   0  0  0  0  0  0  0  0  0  0  0  0
   37.6340   36.3000   27.3620 C   0  0  0  0  0  0  0  0  0  0  0  0
   36.4940   35.2740   27.7160 C   0  0  0  0  0  0  0  0  0  0  0  0
   37.4740   34.8710   29.8550 C   0  0  0  0  0  0  0  0  0  0  0  0
   38.2630   35.9900   30.0230 C   0  0  0  0  0  0  0  0  0  0  0  0
   35.9850   35.5050   24.3760 C   0  0  0  0  0  0  0  0  0  0  0  0
   39.5110   35.9400   30.6500 C   0  0  0  0  0  0  0  0  0  0  0  0
   37.7230   38.8920   24.8620 S   0  0  0  0  0  0  0  0  0  0  0  0
   35.1850   38.8340   23.2900 C   0  0  0  0  0  0  0  0  0  0  0  0
   36.4210   36.7840   24.1430 C   0  0  0  0  0  0  0  0  0  0  0  0
   35.4010   34.8600   23.1020 C   0  0  0  0  0  0  0  0  0  0  0  0
   36.4020   34.7930   28.9200 C   0  0  0  0  0  0  0  0  0  0  0  0
   36.1550   35.8700   20.9460 C   0  0  0  0  0  0  0  0  0  0  0  0
   36.9810   37.2010   26.4650 N   0  0  0  0  0  0  0  0  0  0  0  0
   35.4450   37.0950   21.4360 C   0  0  0  0  0  0  0  0  0  0  0  0
   37.0830   37.4340   25.2150 C   0  0  0  0  0  0  0  0  0  0  0  0
  1 16  1  0
  3  2  1  0
  4  8  1  0
  5 14  1  0
  5 15  1  0
  6  3  1  0
  7  8  1  0
  8 17  1  0
  9 17  1  0
  9 10  1  0
  9  6  1  0
 10 12  2  0
 11 16  1  0
 11  4  1  0
 12  2  1  0
 13 21  2  0
 15 11  1  0
 15 21  1  0
 18 20  1  0
 18  1  1  0
 19  7  1  0
 20  5  1  0
 21 19  1  0
M  END
$$$$

     RDKit          3D

 14 14  0  0  0  0  0  0  0  0999 V2000
   34.2660   35.9700   26.3370 O   0  0  0  0  0  0  0  0  0  0  0  0
   35.8160   35.7460   23.2050 C   0  0  0  0  0  0  0  0  0  0  0  0
   36.9450   38.1260   25.3280 N   0  0  0  0  0  0  0  0  0  0  0  0
   34.5350   36.2840   19.4620 Cl  0  0  0  0  0  0  0  0  0  0  0  0
   33.8020   38.7560   20.9600 O   0  0  0  0  0  0  0  0  0  0  0  0
   36.0530   37.1430   25.0820 C   0  0  0  0  0  0  0  0  0  0  0  0
   34.2750   37.2950   24.0320 C   0  0  0  0  0  0  0  0  0  0  0  0
   35.2400   35.5920   21.8990 C   0  0  0  0  0  0  0  0  0  0  0  0
   35.4230   36.7010   24.0670 C   0  0  0  0  0  0  0  0  0  0  0  0
   33.7600   38.0280   23.0890 O   0  0  0  0  0  0  0  0  0  0  0  0
   34.6380   36.6040   21.2040 C   0  0  0  0  0  0  0  0  0  0  0  0
   35.3190   36.6930   26.3590 C   0  0  0  0  0  0  0  0  0  0  0  0
   35.7970   37.0030   27.4630 O   0  0  0  0  0  0  0  0  0  0  0  0
   34.0230   37.7240   21.7080 C   0  0  0  0  0  0  0  0  0  0  0  0
  1 12  2  0
  2  9  1  0
  5 14  2  0
  6  3  1  0
  6 12  1  0
  7  9  1  0
  8  2  1  0
  9  6  1  0
 10  7  1  0
 11  4  1  0
 11 14  1  0
 11  8  1  0
 12 13  1  0
 14 10  1  0
M  END
$$$$

     RDKit          3D

 17 17  0  0  0  0  0  0  0  0999 V2000
   36.1650   35.3320   23.3140 S   0  0  0  0  0  0  0  0  0  0  0  0
   37.1720   36.9970   21.4230 C   0  0  0  0  0  0  0  0  0  0  0  0
   34.0420   35.5720   28.2080 N   0  0  0  0  0  0  0  0  0  0  0  0
   35.3300   33.8690   25.6940 C   0  0  0  0  0  0  0  0  0  0  0  0
   34.5500   37.4140   27.1430 O   0  0  0  0  0  0  0  0  0  0  0  0
   35.8270   36.6650   22.0730 C   0  0  0  0  0  0  0  0  0  0  0  0
   34.1760   34.3030   30.0150 O   0  0  0  0  0  0  0  0  0  0  0  0
   34.4650   36.1950   27.1080 C   0  0  0  0  0  0  0  0  0  0  0  0
   35.3610   36.1500   24.7270 C   0  0  0  0  0  0  0  0  0  0  0  0
   33.1430   36.2750   29.1090 C   0  0  0  0  0  0  0  0  0  0  0  0
   35.0180   33.3180   28.1660 N   0  0  0  0  0  0  0  0  0  0  0  0
   37.4020   35.6360   20.3080 C   0  0  0  0  0  0  0  0  0  0  0  0
   35.3430   32.1510   29.0410 C   0  0  0  0  0  0  0  0  0  0  0  0
   34.3710   34.3550   28.7550 C   0  0  0  0  0  0  0  0  0  0  0  0
   34.8690   35.3170   25.9270 C   0  0  0  0  0  0  0  0  0  0  0  0
   35.1060   32.8790   26.7760 C   0  0  0  0  0  0  0  0  0  0  0  0
   36.5290   36.2830   18.9450 S   0  0  0  0  0  0  0  0  0  0  0  0
  1  9  1  0
  2  6  1  0
  3 14  1  0
  3 10  1  0
  4 15  1  0
  4 16  1  0
  6  1  1  0
  8  5  2  0
  8  3  1  0
  9 15  2  3
 11 14  1  0
 11 13  1  0
 12  2  1  0
 14  7  2  0
 15  8  1  0
 16 11  1  0
 17 12  1  0
M  END
$$$$

     RDKit          3D

 12 12  0  0  0  0  0  0  0  0999 V2000
   35.0310   37.4910   22.6790 O   0  0  0  0  0  0  0  0  0  0  0  0
   34.5580   35.9610   26.8890 C   0  0  0  0  0  0  0  0  0  0  0  0
   35.6320   34.6100   28.2060 C   0  0  0  0  0  0  0  0  0  0  0  0
   33.6430   35.7060   27.8560 C   0  0  0  0  0  0  0  0  0  0  0  0
   35.7440   35.2020   27.0210 C   0  0  0  0  0  0  0  0  0  0  0  0
   35.7560   35.9770   24.1800 N   0  0  0  0  0  0  0  0  0  0  0  0
   35.5490   37.0740   25.1020 C   0  0  0  0  0  0  0  0  0  0  0  0
   34.0470   34.7600   28.5690 C   0  0  0  0  0  0  0  0  0  0  0  0
   35.8880   36.6220   23.0250 C   0  0  0  0  0  0  0  0  0  0  0  0
   36.0420   35.1910   21.1370 C   0  0  0  0  0  0  0  0  0  0  0  0
   36.9400   36.1550   22.0420 C   0  0  0  0  0  0  0  0  0  0  0  0
   34.3830   36.9270   25.9130 N   0  0  0  0  0  0  0  0  0  0  0  0
  1  9  2  0
  2  5  1  0
  2  4  1  0
  3  8  1  0
  4  8  1  0
  5  3  1  0
  6  7  1  0
  7 12  1  0
  9  6  1  0
 10 11  1  0
 11  9  1  0
 12  2  1  0
M  END
$$$$

     RDKit          3D

 14 15  0  0  0  0  0  0  0  0999 V2000
   35.4840   37.0930   25.6860 C   0  0  0  0  0  0  0  0  0  0  0  0
   36.3360   38.1010   25.3050 N   0  0  0  0  0  0  0  0  0  0  0  0
   37.5610   39.4560   23.6170 C   0  0  0  0  0  0  0  0  0  0  0  0
   33.7950   35.9920   24.0240 C   0  0  0  0  0  0  0  0  0  0  0  0
   33.7090   37.3210   21.9970 C   0  0  0  0  0  0  0  0  0  0  0  0
   35.9790   35.2680   24.1860 F   0  0  0  0  0  0  0  0  0  0  0  0
   36.6910   38.2690   24.0930 C   0  0  0  0  0  0  0  0  0  0  0  0
   35.7540   36.3490   26.7330 O   0  0  0  0  0  0  0  0  0  0  0  0
   34.5630   37.1490   23.3510 C   0  0  0  0  0  0  0  0  0  0  0  0
   35.1580   36.3000   24.4460 C   0  0  0  0  0  0  0  0  0  0  0  0
   33.6190   36.3300   21.2250 O   0  0  0  0  0  0  0  0  0  0  0  0
   32.8610   38.2510   22.0270 O   0  0  0  0  0  0  0  0  0  0  0  0
   35.6610   38.0860   23.1180 O   0  0  0  0  0  0  0  0  0  0  0  0
   36.7900   40.6160   23.4260 O   0  0  0  0  0  0  0  0  0  0  0  0
  1  8  1  0
  2  1  1  0
  3  7  1  0
  4 10  1  0
  5 12  1  0
  7  2  2  0
  9  5  1  0
  9  4  1  0
  9 10  1  0
 10  6  1  0
 10  1  1  0
 11  5  2  0
 13  9  1  0
 13  7  1  0
 14  3  1  0
M  END
$$$$

     RDKit          3D

 13 13  0  0  0  0  0  0  0  0999 V2000
   34.8210   34.4590   22.5930 C   0  0  0  0  0  0  0  0  0  0  0  0
   39.3220   37.8660   22.2170 O   0  0  0  0  0  0  0  0  0  0  0  0
   34.2080   37.5820   20.4070 C   0  0  0  0  0  0  0  0  0  0  0  0
   35.0650   37.0790   22.4890 C   0  0  0  0  0  0  0  0  0  0  0  0
   35.0110   35.6730   21.8840 C   0  0  0  0  0  0  0  0  0  0  0  0
   34.4670   39.3640   21.6150 O   0  0  0  0  0  0  0  0  0  0  0  0
   34.5660   38.0830   21.5140 C   0  0  0  0  0  0  0  0  0  0  0  0
   37.0030   38.3640   21.6050 N   0  0  0  0  0  0  0  0  0  0  0  0
   34.6440   35.9150   20.4570 C   0  0  0  0  0  0  0  0  0  0  0  0
   36.5880   37.2600   22.4750 C   0  0  0  0  0  0  0  0  0  0  0  0
   34.1920   37.0940   23.7660 C   0  0  0  0  0  0  0  0  0  0  0  0
   38.4250   38.5330   21.2680 C   0  0  0  0  0  0  0  0  0  0  0  0
   38.9630   39.7790   21.6980 O   0  0  0  0  0  0  0  0  0  0  0  0
  3  9  1  0
  3  7  2  0
  4 11  1  0
  5  4  1  0
  5  1  1  0
  7  6  1  0
  7  4  1  0
  8 10  1  0
  9  5  1  0
 10  4  1  0
 12  8  1  0
 12 13  1  0
 12  2  1  0
M  END
$$$$

     RDKit          3D

  7  7  0  0  0  0  0  0  0  0999 V2000
   34.2670   34.9980   21.6770 C   0  0  0  0  0  0  0  0  0  0  0  0
   33.9940   34.3130   22.5080 O   0  0  0  0  0  0  0  0  0  0  0  0
   33.8530   36.2330   19.7450 C   0  0  0  0  0  0  0  0  0  0  0  0
   35.8470   37.2860   20.5670 N   0  0  0  0  0  0  0  0  0  0  0  0
   33.2280   35.7300   21.0260 C   0  0  0  0  0  0  0  0  0  0  0  0
   35.5010   35.1000   21.0520 N   0  0  0  0  0  0  0  0  0  0  0  0
   35.4270   36.0540   19.9780 C   0  0  0  0  0  0  0  0  0  0  0  0
  1  2  2  0
  3  7  1  0
  3  5  1  0
  5  1  1  0
  6  1  1  0
  7  4  1  0
  7  6  1  0
M  END
$$$$

     RDKit          3D

 11 11  0  0  0  0  0  0  0  0999 V2000
   36.7680   37.3570   22.8080 O   0  0  0  0  0  0  0  0  0  0  0  0
   35.0010   39.0510   22.2210 C   0  0  0  0  0  0  0  0  0  0  0  0
   34.6620   37.5790   22.2750 C   0  0  0  0  0  0  0  0  0  0  0  0
   34.5630   36.8100   23.5190 N   0  0  0  0  0  0  0  0  0  0  0  0
   33.5410   40.9310   22.5840 O   0  0  0  0  0  0  0  0  0  0  0  0
   36.6660   33.9830   23.0080 O   0  0  0  0  0  0  0  0  0  0  0  0
   36.0640   35.0420   22.8490 C   0  0  0  0  0  0  0  0  0  0  0  0
   35.6600   37.0860   21.5250 C   0  0  0  0  0  0  0  0  0  0  0  0
   33.7490   39.7570   21.7790 C   0  0  0  0  0  0  0  0  0  0  0  0
   36.6460   36.3460   22.3870 C   0  0  0  0  0  0  0  0  0  0  0  0
   34.8570   35.2370   23.4930 N   0  0  0  0  0  0  0  0  0  0  0  0
  3  2  1  0
  3  4  1  0
  7  6  2  0
  7 11  1  0
  8  3  1  0
  8 10  1  0
  9  2  1  0
  9  5  1  0
 10  1  1  0
 10  7  1  0
 11  4  1  0
M  END
$$$$

     RDKit          3D

 26 27  0  0  0  0  0  0  0  0999 V2000
   36.4330   35.4040   16.9890 C   0  0  0  0  0  0  0  0  0  0  0  0
   36.4280   35.0590   26.3000 N   0  0  0  0  0  0  0  0  0  0  0  0
   35.6720   34.3350   21.1610 C   0  0  0  0  0  0  0  0  0  0  0  0
   36.6310   35.9120   22.8410 C   0  0  0  0  0  0  0  0  0  0  0  0
   35.4860   34.9050   33.2350 C   0  0  0  0  0  0  0  0  0  0  0  0
   36.6530   34.0160   31.1910 C   0  0  0  0  0  0  0  0  0  0  0  0
   34.3140   33.1670   35.1530 C   0  0  0  0  0  0  0  0  0  0  0  0
   36.7340   34.2070   28.4450 C   0  0  0  0  0  0  0  0  0  0  0  0
   37.8690   33.4160   30.5290 C   0  0  0  0  0  0  0  0  0  0  0  0
   35.6170   37.9360   24.8090 O   0  0  0  0  0  0  0  0  0  0  0  0
   36.0800   36.6960   24.2210 S   0  0  0  0  0  0  0  0  0  0  0  0
   35.5860   35.3570   34.6590 C   0  0  0  0  0  0  0  0  0  0  0  0
   38.0420   33.7820   29.0370 C   0  0  0  0  0  0  0  0  0  0  0  0
   36.7160   36.4450   17.8460 C   0  0  0  0  0  0  0  0  0  0  0  0
   35.8270   33.1360   34.9830 C   0  0  0  0  0  0  0  0  0  0  0  0
   36.5420   34.1450   27.0550 C   0  0  0  0  0  0  0  0  0  0  0  0
   35.3830   35.6590   21.9480 C   0  0  0  0  0  0  0  0  0  0  0  0
   36.1950   33.6890   33.6510 N   0  0  0  0  0  0  0  0  0  0  0  0
   35.7870   34.9750   30.4160 C   0  0  0  0  0  0  0  0  0  0  0  0
   36.3860   35.5220   29.1220 C   0  0  0  0  0  0  0  0  0  0  0  0
   36.1370   35.2980   31.8760 C   0  0  0  0  0  0  0  0  0  0  0  0
   37.1410   35.8790   25.3520 C   0  0  0  0  0  0  0  0  0  0  0  0
   37.8260   36.7420   17.5110 C   0  0  0  0  0  0  0  0  0  0  0  0
   35.1420   36.7150   20.9990 C   0  0  0  0  0  0  0  0  0  0  0  0
   35.5270   36.7430   18.6970 C   0  0  0  0  0  0  0  0  0  0  0  0
   36.1760   36.9340   19.9090 C   0  0  0  0  0  0  0  0  0  0  0  0
  1 14  1  0
  2 16  1  0
  4 11  1  0
  5 18  1  0
  5 12  1  0
  6  9  1  0
  6 21  1  0
  8 16  1  0
  8 13  1  0
  8 20  1  0
 11 10  2  0
 11 22  1  0
 13  9  1  0
 14 25  1  0
 15  7  1  0
 17  3  1  0
 17  4  1  0
 18 15  1  0
 19 20  1  0
 19  6  1  0
 19 21  1  0
 21  5  1  0
 22  2  1  0
 23 14  2  0
 24 17  1  0
 25 26  1  0
 26 24  1  0
M  END
$$$$

     RDKit          3D

  8  7  0  0  0  0  0  0  0  0999 V2000
   37.9230   35.8950   21.4470 O   0  0  0  0  0  0  0  0  0  0  0  0
   36.1930   38.2220   21.9070 C   0  0  0  0  0  0  0  0  0  0  0  0
   36.1660   35.8160   20.0110 O   0  0  0  0  0  0  0  0  0  0  0  0
   37.9280   38.8000   20.3100 N   0  0  0  0  0  0  0  0  0  0  0  0
   35.0230   40.2100   21.9480 O   0  0  0  0  0  0  0  0  0  0  0  0
   37.0610   37.8950   20.6690 C   0  0  0  0  0  0  0  0  0  0  0  0
   37.0320   36.4830   20.5610 C   0  0  0  0  0  0  0  0  0  0  0  0
   36.3210   39.6780   22.3170 C   0  0  0  0  0  0  0  0  0  0  0  0
  2  8  1  0
  3  7  2  0
  4  6  2  0
  5  8  1  0
  6  2  1  0
  7  6  1  0
  7  1  1  0
M  END
$$$$

     RDKit          3D

 12 12  0  0  0  0  0  0  0  0999 V2000
   33.4280   36.5810   27.3980 C   0  0  0  0  0  0  0  0  0  0  0  0
   35.2010   37.8950   24.4450 C   0  0  0  0  0  0  0  0  0  0  0  0
   36.1640   36.9690   23.7700 C   0  0  0  0  0  0  0  0  0  0  0  0
   37.4070   37.2660   24.6580 O   0  0  0  0  0  0  0  0  0  0  0  0
   33.8330   37.5330   26.6090 N   0  0  0  0  0  0  0  0  0  0  0  0
   34.7000   37.2100   25.6520 C   0  0  0  0  0  0  0  0  0  0  0  0
   35.8430   35.5290   23.9230 C   0  0  0  0  0  0  0  0  0  0  0  0
   36.5710   34.6840   22.9450 C   0  0  0  0  0  0  0  0  0  0  0  0
   35.1090   36.0200   26.1660 N   0  0  0  0  0  0  0  0  0  0  0  0
   37.2120   35.2840   22.2560 C   0  0  0  0  0  0  0  0  0  0  0  0
   31.9930   36.5920   28.3050 S   0  0  0  0  0  0  0  0  0  0  0  0
   34.4050   35.6250   27.2810 C   0  0  0  0  0  0  0  0  0  0  0  0
  1 11  2  0
  2  6  1  0
  3  7  1  0
  3  2  1  0
  3  4  1  0
  5  1  1  0
  6  9  1  0
  6  5  2  0
  8  7  1  0
  9 12  1  0
 10  8  1  0
 12  1  1  0
M  END
$$$$

     RDKit          3D

 21 20  0  0  0  0  0  0  0  0999 V2000
   36.9440   39.6440   21.5650 C   0  0  0  0  0  0  0  0  0  0  0  0
   37.5920   32.6000   32.5930 C   0  0  0  0  0  0  0  0  0  0  0  0
   36.4610   37.2910   22.3150 C   0  0  0  0  0  0  0  0  0  0  0  0
   37.8580   31.6130   34.8140 C   0  0  0  0  0  0  0  0  0  0  0  0
   36.8600   35.2150   21.0020 C   0  0  0  0  0  0  0  0  0  0  0  0
   39.5240   34.9520   32.3540 O   0  0  0  0  0  0  0  0  0  0  0  0
   36.3190   36.4620   24.8010 C   0  0  0  0  0  0  0  0  0  0  0  0
   38.4530   35.0450   30.2530 N   0  0  0  0  0  0  0  0  0  0  0  0
   37.3510   34.0680   34.6300 C   0  0  0  0  0  0  0  0  0  0  0  0
   37.3580   35.9320   25.6690 C   0  0  0  0  0  0  0  0  0  0  0  0
   38.2560   34.7190   31.6330 C   0  0  0  0  0  0  0  0  0  0  0  0
   37.3190   38.4650   21.9190 C   0  0  0  0  0  0  0  0  0  0  0  0
   36.3730   36.5720   21.1130 N   0  0  0  0  0  0  0  0  0  0  0  0
   36.9570   35.9180   27.1150 C   0  0  0  0  0  0  0  0  0  0  0  0
   35.4840   37.2900   20.0560 C   0  0  0  0  0  0  0  0  0  0  0  0
   36.1380   35.1470   29.6410 N   0  0  0  0  0  0  0  0  0  0  0  0
   36.4960   36.4080   23.4680 C   0  0  0  0  0  0  0  0  0  0  0  0
   37.5860   32.8170   34.0340 N   0  0  0  0  0  0  0  0  0  0  0  0
   37.0290   33.8150   31.8330 C   0  0  0  0  0  0  0  0  0  0  0  0
   37.4080   34.8040   29.2630 C   0  0  0  0  0  0  0  0  0  0  0  0
   38.0280   35.3330   27.9950 C   0  0  0  0  0  0  0  0  0  0  0  0
  1 12  2  0
  2 18  1  0
  3 12  1  0
  3 17  1  0
  5 13  1  0
  7 10  1  0
  8 11  1  0
 10 14  1  0
 11 19  1  0
 11  6  2  0
 13  3  1  0
 14 21  1  0
 15 13  1  0
 17  7  1  0
 18  9  1  0
 18  4  1  0
 19  2  1  0
 20 16  1  0
 20  8  1  0
 21 20  1  0
M  END
$$$$

     RDKit          3D

 13 13  0  0  0  0  0  0  0  0999 V2000
   37.9940   36.6080   21.9500 C   0  0  0  0  0  0  0  0  0  0  0  0
   39.3110   37.1720   21.7350 N   0  0  0  0  0  0  0  0  0  0  0  0
   35.1450   35.0550   21.4550 O   0  0  0  0  0  0  0  0  0  0  0  0
   35.5060   35.1360   22.6570 C   0  0  0  0  0  0  0  0  0  0  0  0
   36.1090   37.2900   20.1150 O   0  0  0  0  0  0  0  0  0  0  0  0
   36.2990   34.3800   23.2920 O   0  0  0  0  0  0  0  0  0  0  0  0
   35.9680   38.0690   21.2990 C   0  0  0  0  0  0  0  0  0  0  0  0
   36.9840   39.0470   21.6450 O   0  0  0  0  0  0  0  0  0  0  0  0
   33.6420   37.7620   21.9510 N   0  0  0  0  0  0  0  0  0  0  0  0
   34.8740   36.2540   23.4930 C   0  0  0  0  0  0  0  0  0  0  0  0
   37.0850   37.7820   22.3380 C   0  0  0  0  0  0  0  0  0  0  0  0
   33.5450   36.6800   22.8480 C   0  0  0  0  0  0  0  0  0  0  0  0
   34.5450   38.4420   21.3800 C   0  0  0  0  0  0  0  0  0  0  0  0
  2  1  1  0
  3  4  2  0
  4  6  1  0
  4 10  1  0
  7  5  1  0
  7 13  1  0
  7  8  1  0
  7 11  1  0
  8 11  1  0
  9 12  1  0
 11  1  1  0
 12 10  1  0
 13  9  2  3
M  END
$$$$

     RDKit          3D

 29 30  0  0  0  0  0  0  0  0999 V2000
   38.2610   36.3490   27.9040 N   0  0  0  0  0  0  0  0  0  0  0  0
   37.8640   39.4370   21.2260 C   0  0  0  0  0  0  0  0  0  0  0  0
   37.3810   35.4650   27.4650 C   0  0  0  0  0  0  0  0  0  0  0  0
   36.4500   34.7180   28.3900 C   0  0  0  0  0  0  0  0  0  0  0  0
   36.7620   38.3820   21.1680 C   0  0  0  0  0  0  0  0  0  0  0  0
   36.6230   41.4160   20.3290 C   0  0  0  0  0  0  0  0  0  0  0  0
   38.3310   40.2610   18.8660 C   0  0  0  0  0  0  0  0  0  0  0  0
   37.9570   37.8600   25.8600 C   0  0  0  0  0  0  0  0  0  0  0  0
   37.7380   32.7780   27.8660 N   0  0  0  0  0  0  0  0  0  0  0  0
   35.5570   32.9360   33.4650 C   0  0  0  0  0  0  0  0  0  0  0  0
   36.8340   37.2950   22.1790 C   0  0  0  0  0  0  0  0  0  0  0  0
   37.2430   37.0670   24.7460 C   0  0  0  0  0  0  0  0  0  0  0  0
   38.5060   37.4920   27.1930 C   0  0  0  0  0  0  0  0  0  0  0  0
   36.9370   35.2550   26.2700 N   0  0  0  0  0  0  0  0  0  0  0  0
   36.9240   35.6860   25.0500 C   0  0  0  0  0  0  0  0  0  0  0  0
   39.1840   38.4680   27.8380 N   0  0  0  0  0  0  0  0  0  0  0  0
   36.0560   33.6400   24.5630 O   0  0  0  0  0  0  0  0  0  0  0  0
   36.5470   35.7160   20.4170 C   0  0  0  0  0  0  0  0  0  0  0  0
   34.0930   33.6780   31.6020 C   0  0  0  0  0  0  0  0  0  0  0  0
   36.5800   34.7040   24.1550 C   0  0  0  0  0  0  0  0  0  0  0  0
   36.8760   33.6330   28.7280 C   0  0  0  0  0  0  0  0  0  0  0  0
   35.3850   32.7750   31.9290 C   0  0  0  0  0  0  0  0  0  0  0  0
   36.2910   38.3600   20.0680 O   0  0  0  0  0  0  0  0  0  0  0  0
   37.2820   35.9360   21.8380 C   0  0  0  0  0  0  0  0  0  0  0  0
   36.8860   37.6440   23.5990 O   0  0  0  0  0  0  0  0  0  0  0  0
   36.1600   32.3670   30.9030 N   0  0  0  0  0  0  0  0  0  0  0  0
   36.1230   32.6360   29.6570 C   0  0  0  0  0  0  0  0  0  0  0  0
   37.7690   40.4390   20.1650 N   0  0  0  0  0  0  0  0  0  0  0  0
   36.7130   34.8630   22.6420 C   0  0  0  0  0  0  0  0  0  0  0  0
  3  1  2  0
  3  4  1  0
  4 21  1  0
  5  2  1  0
  7 28  1  0
  8 13  1  0
 11  5  1  0
 11 25  1  0
 12 15  1  0
 12  8  2  0
 13 16  1  0
 13  1  1  0
 14  3  1  0
 15 20  1  0
 15 14  1  0
 19 22  1  0
 20 17  2  0
 21  9  1  0
 21 27  1  0
 22 10  1  0
 23  5  2  0
 24 18  1  0
 24 11  1  0
 24 29  1  0
 25 12  1  0
 26 22  1  0
 27 26  1  0
 28  6  1  0
 28  2  1  0
 29 20  1  0
M  END
$$$$

     RDKit          3D

 27 28  0  0  0  0  0  0  0  0999 V2000
   37.5520   34.7350   26.9760 C   0  0  0  0  0  0  0  0  0  0  0  0
   34.7600   29.5160   32.9550 C   0  0  0  0  0  0  0  0  0  0  0  0
   38.6610   39.8310   20.2110 C   0  0  0  0  0  0  0  0  0  0  0  0
   37.2230   35.2200   25.5940 C   0  0  0  0  0  0  0  0  0  0  0  0
   36.9450   38.9010   22.2650 C   0  0  0  0  0  0  0  0  0  0  0  0
   37.2640   36.2420   21.3350 Cl  0  0  0  0  0  0  0  0  0  0  0  0
   38.0500   38.8780   20.2560 C   0  0  0  0  0  0  0  0  0  0  0  0
   35.2680   32.6000   31.9180 C   0  0  0  0  0  0  0  0  0  0  0  0
   36.5360   34.5610   27.9070 O   0  0  0  0  0  0  0  0  0  0  0  0
   33.9910   30.4090   33.9430 C   0  0  0  0  0  0  0  0  0  0  0  0
   35.8400   30.9380   30.0920 C   0  0  0  0  0  0  0  0  0  0  0  0
   36.1400   31.2100   31.4570 C   0  0  0  0  0  0  0  0  0  0  0  0
   36.1960   38.4100   23.5050 C   0  0  0  0  0  0  0  0  0  0  0  0
   36.9940   34.5210   29.2550 C   0  0  0  0  0  0  0  0  0  0  0  0
   36.3670   33.3550   29.8530 C   0  0  0  0  0  0  0  0  0  0  0  0
   35.7350   35.2130   25.2600 C   0  0  0  0  0  0  0  0  0  0  0  0
   36.0750   30.3230   32.7080 C   0  0  0  0  0  0  0  0  0  0  0  0
   36.6650   37.2300   24.1910 N   0  0  0  0  0  0  0  0  0  0  0  0
   37.9720   40.6310   21.0000 C   0  0  0  0  0  0  0  0  0  0  0  0
   35.2680   33.7370   30.8550 C   0  0  0  0  0  0  0  0  0  0  0  0
   35.2710   36.5470   24.8680 C   0  0  0  0  0  0  0  0  0  0  0  0
   38.3510   42.3160   20.9220 Cl  0  0  0  0  0  0  0  0  0  0  0  0
   36.0170   32.0900   29.1210 C   0  0  0  0  0  0  0  0  0  0  0  0
   37.2020   40.1090   21.9010 C   0  0  0  0  0  0  0  0  0  0  0  0
   35.1620   38.9690   23.7640 O   0  0  0  0  0  0  0  0  0  0  0  0
   34.9070   28.2660   33.7610 C   0  0  0  0  0  0  0  0  0  0  0  0
   37.5050   38.0770   21.3800 C   0  0  0  0  0  0  0  0  0  0  0  0
  1  9  1  0
  2 26  1  0
  2 10  1  0
  3  7  1  0
  3 19  1  0
  4  1  1  0
  5 13  1  0
  7 27  1  0
  9 14  1  0
 11 12  1  0
 12  8  1  0
 12 17  1  0
 13 25  2  0
 13 18  1  0
 15 14  1  0
 15 20  1  0
 16  4  1  0
 17  2  1  0
 18 21  1  0
 19 22  1  0
 19 24  1  0
 20  8  1  0
 21 16  1  0
 23 15  1  0
 23 11  1  0
 24  5  2  0
 27  6  1  0
 27  5  1  0
M  END
$$$$

     RDKit          3D

 11 11  0  0  0  0  0  0  0  0999 V2000
   36.5990   34.5120   23.0800 C   0  0  0  0  0  0  0  0  0  0  0  0
   36.5900   37.5980   23.1630 O   0  0  0  0  0  0  0  0  0  0  0  0
   34.4040   36.8410   22.7540 C   0  0  0  0  0  0  0  0  0  0  0  0
   37.5410   33.9820   22.7550 O   0  0  0  0  0  0  0  0  0  0  0  0
   35.0250   39.1690   22.0930 C   0  0  0  0  0  0  0  0  0  0  0  0
   35.5660   36.6810   23.3260 C   0  0  0  0  0  0  0  0  0  0  0  0
   36.4460   38.5860   22.2090 C   0  0  0  0  0  0  0  0  0  0  0  0
   33.5070   35.8460   22.9580 O   0  0  0  0  0  0  0  0  0  0  0  0
   34.2180   38.0320   21.8120 C   0  0  0  0  0  0  0  0  0  0  0  0
   35.8840   35.3980   24.0920 C   0  0  0  0  0  0  0  0  0  0  0  0
   34.4530   40.1930   21.2020 O   0  0  0  0  0  0  0  0  0  0  0  0
  1 10  1  0
  2  6  1  0
  3  8  1  0
  3  6  2  0
  4  1  2  0
  5 11  1  0
  5  7  1  0
  6 10  1  0
  7  2  1  0
  9  5  1  0
  9  3  1  0
M  END
$$$$

     RDKit          3D

 12 11  0  0  0  0  0  0  0  0999 V2000
   37.3260   37.4170   22.5970 C   0  0  0  0  0  0  0  0  0  0  0  0
   37.0490   35.1830   20.8500 O   0  0  0  0  0  0  0  0  0  0  0  0
   35.1650   37.1930   25.9230 O   0  0  0  0  0  0  0  0  0  0  0  0
   36.6260   35.0620   23.3510 C   0  0  0  0  0  0  0  0  0  0  0  0
   37.5750   35.8280   22.2710 S   0  0  0  0  0  0  0  0  0  0  0  0
   39.0460   35.5730   22.4300 O   0  0  0  0  0  0  0  0  0  0  0  0
   34.7840   34.4990   25.5850 O   0  0  0  0  0  0  0  0  0  0  0  0
   36.6030   35.8710   24.4370 N   0  0  0  0  0  0  0  0  0  0  0  0
   36.0980   37.7400   22.1220 O   0  0  0  0  0  0  0  0  0  0  0  0
   37.8450   38.4810   23.2870 N   0  0  0  0  0  0  0  0  0  0  0  0
   35.6120   35.7210   25.7340 P   0  0  0  0  0  0  0  0  0  0  0  0
   36.7700   35.3250   26.6900 O   0  0  0  0  0  0  0  0  0  0  0  0
  1 10  1  0
  2  5  2  0
  4  8  1  0
  5  6  2  0
  5  1  1  0
  5  4  1  0
  7 11  2  0
  8 11  1  0
  9  1  2  0
 11  3  1  0
 11 12  1  0
M  END
$$$$

     RDKit          3D

 21 21  0  0  0  0  0  0  0  0999 V2000
   37.7310   31.9920   30.2200 S   0  0  0  0  0  0  0  0  0  0  0  0
   38.6600   31.0060   30.7260 O   0  0  0  0  0  0  0  0  0  0  0  0
   36.8750   35.9070   22.9230 O   0  0  0  0  0  0  0  0  0  0  0  0
   37.5500   35.3710   27.6520 C   0  0  0  0  0  0  0  0  0  0  0  0
   36.5420   37.6970   24.4000 C   0  0  0  0  0  0  0  0  0  0  0  0
   37.1550   31.3690   28.7450 C   0  0  0  0  0  0  0  0  0  0  0  0
   39.7360   33.2830   30.6340 N   0  0  0  0  0  0  0  0  0  0  0  0
   35.3660   35.2050   20.8910 C   0  0  0  0  0  0  0  0  0  0  0  0
   38.9590   38.1070   25.2260 C   0  0  0  0  0  0  0  0  0  0  0  0
   38.2050   34.3500   28.7100 C   0  0  0  0  0  0  0  0  0  0  0  0
   34.9880   37.2110   22.4940 C   0  0  0  0  0  0  0  0  0  0  0  0
   36.9680   35.2550   26.1970 C   0  0  0  0  0  0  0  0  0  0  0  0
   36.1070   36.8780   23.2230 C   0  0  0  0  0  0  0  0  0  0  0  0
   36.6800   35.9720   28.4380 O   0  0  0  0  0  0  0  0  0  0  0  0
   36.9230   36.6790   25.5440 N   0  0  0  0  0  0  0  0  0  0  0  0
   36.9180   32.6270   31.3020 O   0  0  0  0  0  0  0  0  0  0  0  0
   38.1900   36.5320   27.4380 O   0  0  0  0  0  0  0  0  0  0  0  0
   38.1220   37.2660   26.2320 C   0  0  0  0  0  0  0  0  0  0  0  0
   38.7210   33.3880   29.8530 C   0  0  0  0  0  0  0  0  0  0  0  0
   34.4250   36.1710   21.5120 C   0  0  0  0  0  0  0  0  0  0  0  0
   34.1760   38.1630   22.9790 O   0  0  0  0  0  0  0  0  0  0  0  0
  1  2  2  0
  1 16  2  0
  3 13  2  0
  4 14  1  0
  4 10  1  0
  5 15  1  0
  6  1  1  0
  8 20  1  0
 10 19  1  0
 11 21  1  0
 11 13  1  0
 12  4  1  0
 13  5  1  0
 15 12  1  0
 15 18  1  0
 17  4  1  0
 18  9  1  0
 18 17  1  0
 19  1  1  0
 19  7  2  0
 20 11  1  0
M  END
$$$$
