
     RDKit          3D

 11 12  0  0  0  0  0  0  0  0999 V2000
   34.0600   38.2160   31.6640 C   0  0  0  0  0  0  0  0  0  0  0  0
   36.1830   41.4880   30.2480 O   0  0  0  0  0  0  0  0  0  0  0  0
   36.7170   40.4840   30.8400 C   0  0  0  0  0  0  0  0  0  0  0  0
   38.0280   40.5470   31.0560 N   0  0  0  0  0  0  0  0  0  0  0  0
   38.9660   38.2620   31.6670 C   0  0  0  0  0  0  0  0  0  0  0  0
   38.9750   39.6090   31.4070 C   0  0  0  0  0  0  0  0  0  0  0  0
   36.3900   38.0770   31.6500 C   0  0  0  0  0  0  0  0  0  0  0  0
   35.9190   39.3570   31.1810 C   0  0  0  0  0  0  0  0  0  0  0  0
   37.6470   37.5410   31.8120 N   0  0  0  0  0  0  0  0  0  0  0  0
   35.2910   37.3320   31.9610 C   0  0  0  0  0  0  0  0  0  0  0  0
   34.6160   39.3790   31.1150 N   0  0  0  0  0  0  0  0  0  0  0  0
  1 10  1  0
  2  3  2  0
  3  4  1  0
  3  8  1  0
  4  6  1  0
  5  9  1  0
  6  5  2  0
  7  9  1  0
  7 10  1  0
  8  7  2  0
 11  8  1  0
 11  1  2  0
M  END
$$$$

     RDKit          3D

  6  5  0  0  0  0  0  0  0  0999 V2000
   40.7900   39.4530   28.1810 O   0  0  0  0  0  0  0  0  0  0  0  0
   40.2790   40.2900   28.9020 C   0  0  0  0  0  0  0  0  0  0  0  0
   40.5610   40.3510   30.3850 C   0  0  0  0  0  0  0  0  0  0  0  0
   39.4220   42.1050   31.7090 O   0  0  0  0  0  0  0  0  0  0  0  0
   41.8570   39.9710   30.6550 O   0  0  0  0  0  0  0  0  0  0  0  0
   40.3660   41.8320   30.6830 C   0  0  0  0  0  0  0  0  0  0  0  0
  1  2  2  0
  2  3  1  0
  3  5  1  0
  3  6  1  0
  6  4  1  0
M  END
$$$$

     RDKit          3D

 20 20  0  0  0  0  0  0  0  0999 V2000
   39.7890   42.5140   32.9070 O   0  0  0  0  0  0  0  0  0  0  0  0
   38.0940   32.7790   30.2750 C   0  0  0  0  0  0  0  0  0  0  0  0
   35.6700   34.8380   32.6050 C   0  0  0  0  0  0  0  0  0  0  0  0
   39.5220   42.0860   31.9700 C   0  0  0  0  0  0  0  0  0  0  0  0
   34.5330   39.7400   32.8080 O   0  0  0  0  0  0  0  0  0  0  0  0
   37.4220   40.6820   31.7900 C   0  0  0  0  0  0  0  0  0  0  0  0
   35.8410   36.3190   32.3640 C   0  0  0  0  0  0  0  0  0  0  0  0
   37.1360   39.4460   31.5240 N   0  0  0  0  0  0  0  0  0  0  0  0
   38.1890   33.5380   29.2810 O   0  0  0  0  0  0  0  0  0  0  0  0
   39.8080   43.0890   30.8510 C   0  0  0  0  0  0  0  0  0  0  0  0
   37.3510   33.2780   31.5230 C   0  0  0  0  0  0  0  0  0  0  0  0
   36.6500   41.9470   32.0360 C   0  0  0  0  0  0  0  0  0  0  0  0
   36.3300   38.4970   31.8620 C   0  0  0  0  0  0  0  0  0  0  0  0
   38.8630   40.9010   31.4540 C   0  0  0  0  0  0  0  0  0  0  0  0
   34.7620   37.2750   32.7880 C   0  0  0  0  0  0  0  0  0  0  0  0
   35.1440   38.5990   32.5180 C   0  0  0  0  0  0  0  0  0  0  0  0
   38.7860   31.7120   30.3030 O   0  0  0  0  0  0  0  0  0  0  0  0
   36.0110   34.0650   31.3270 C   0  0  0  0  0  0  0  0  0  0  0  0
   33.4660   36.8150   33.3650 C   0  0  0  0  0  0  0  0  0  0  0  0
   36.8040   37.0660   31.8760 C   0  0  0  0  0  0  0  0  0  0  0  0
  2 17  1  0
  2 11  1  0
  4  1  2  0
  6 12  1  0
  7  3  1  0
  7 15  1  0
  8  6  1  0
  8 13  1  0
  9  2  2  0
 10  4  1  0
 13 20  1  0
 13 16  2  0
 14  6  1  0
 14  4  1  0
 15 19  1  0
 16 15  1  0
 16  5  1  0
 18 11  1  0
 18  3  1  0
 20  7  2  0
M  END
$$$$

     RDKit          3D

 11 12  0  0  0  0  0  0  0  0999 V2000
   40.3480   40.8160   30.9690 C   0  0  0  0  0  0  0  0  0  0  0  0
   39.1780   41.3200   31.6710 N   0  0  0  0  0  0  0  0  0  0  0  0
   41.1850   40.0030   31.6690 O   0  0  0  0  0  0  0  0  0  0  0  0
   37.2850   42.3920   30.6330 O   0  0  0  0  0  0  0  0  0  0  0  0
   39.8390   39.9180   29.7840 C   0  0  0  0  0  0  0  0  0  0  0  0
   39.3170   41.0720   34.3430 S   0  0  0  0  0  0  0  0  0  0  0  0
   38.6380   41.7800   32.9700 C   0  0  0  0  0  0  0  0  0  0  0  0
   41.9750   39.4420   30.6170 C   0  0  0  0  0  0  0  0  0  0  0  0
   38.5240   41.7860   30.5020 C   0  0  0  0  0  0  0  0  0  0  0  0
   38.6780   40.7430   29.3620 C   0  0  0  0  0  0  0  0  0  0  0  0
   40.8510   38.9200   29.7290 C   0  0  0  0  0  0  0  0  0  0  0  0
  1  3  1  0
  1  2  1  0
  2  7  1  0
  5 10  1  0
  5  1  1  0
  7  6  1  0
  8  3  1  0
  9  4  2  0
  9  2  1  0
 10  9  1  0
 11  5  1  0
 11  8  1  0
M  END
$$$$

     RDKit          3D

  9  9  0  0  0  0  0  0  0  0999 V2000
   41.2500   40.6030   29.1630 C   0  0  0  0  0  0  0  0  0  0  0  0
   41.7430   41.9020   29.1920 O   0  0  0  0  0  0  0  0  0  0  0  0
   38.2710   43.3800   31.3630 N   0  0  0  0  0  0  0  0  0  0  0  0
   41.1170   40.0310   27.9190 O   0  0  0  0  0  0  0  0  0  0  0  0
   40.2570   41.6240   29.5000 C   0  0  0  0  0  0  0  0  0  0  0  0
   40.0000   41.9790   30.8470 C   0  0  0  0  0  0  0  0  0  0  0  0
   41.6830   39.8550   30.2200 O   0  0  0  0  0  0  0  0  0  0  0  0
   40.0260   44.1620   29.8630 O   0  0  0  0  0  0  0  0  0  0  0  0
   39.6750   43.4070   31.0320 C   0  0  0  0  0  0  0  0  0  0  0  0
  1  2  1  0
  1  5  1  0
  1  7  1  0
  2  5  1  0
  4  1  1  0
  5  6  1  0
  6  9  1  0
  9  8  1  0
  9  3  1  0
M  END
$$$$

     RDKit          3D

 14 14  0  0  0  0  0  0  0  0999 V2000
   38.8920   39.7540   30.7480 C   0  0  0  0  0  0  0  0  0  0  0  0
   37.7180   36.2850   33.2220 C   0  0  0  0  0  0  0  0  0  0  0  0
   37.9340   35.0240   33.7240 N   0  0  0  0  0  0  0  0  0  0  0  0
   36.2820   36.6330   33.0700 C   0  0  0  0  0  0  0  0  0  0  0  0
   39.2880   37.6750   32.0970 C   0  0  0  0  0  0  0  0  0  0  0  0
   38.9400   34.0650   33.3250 C   0  0  0  0  0  0  0  0  0  0  0  0
   34.9630   36.6420   35.0470 O   0  0  0  0  0  0  0  0  0  0  0  0
   37.5090   34.7410   34.7560 O   0  0  0  0  0  0  0  0  0  0  0  0
   36.1800   37.9490   32.4300 O   0  0  0  0  0  0  0  0  0  0  0  0
   33.9890   37.0270   33.1480 O   0  0  0  0  0  0  0  0  0  0  0  0
   34.9270   36.6420   33.8120 C   0  0  0  0  0  0  0  0  0  0  0  0
   38.3660   38.6880   31.6910 C   0  0  0  0  0  0  0  0  0  0  0  0
   38.8350   36.7330   32.9070 C   0  0  0  0  0  0  0  0  0  0  0  0
   36.9750   38.6130   32.0460 C   0  0  0  0  0  0  0  0  0  0  0  0
  1 12  1  0
  2  3  1  0
  3  8  1  0
  4  2  2  0
  4 11  1  0
  5 13  2  0
  6  3  1  0
  9  4  1  0
 10 11  2  0
 11  7  1  0
 12 14  2  0
 12  5  1  0
 13  2  1  0
 14  9  1  0
M  END
$$$$

     RDKit          3D

 21 21  0  0  0  0  0  0  0  0999 V2000
   39.9700   41.1030   30.8790 C   0  0  0  0  0  0  0  0  0  0  0  0
   40.6050   39.1650   30.9180 C   0  0  0  0  0  0  0  0  0  0  0  0
   33.0930   37.4920   30.0740 C   0  0  0  0  0  0  0  0  0  0  0  0
   42.3170   40.7960   31.1670 O   0  0  0  0  0  0  0  0  0  0  0  0
   40.9840   37.8420   30.5350 N   0  0  0  0  0  0  0  0  0  0  0  0
   35.8800   37.9730   31.7600 N   0  0  0  0  0  0  0  0  0  0  0  0
   38.2130   42.4620   31.4480 O   0  0  0  0  0  0  0  0  0  0  0  0
   33.4690   38.7410   30.1610 C   0  0  0  0  0  0  0  0  0  0  0  0
   37.8090   40.1540   31.9100 C   0  0  0  0  0  0  0  0  0  0  0  0
   36.5000   40.2630   31.7760 N   0  0  0  0  0  0  0  0  0  0  0  0
   32.6740   39.7470   29.1480 C   0  0  0  0  0  0  0  0  0  0  0  0
   41.2780   41.5490   31.3760 C   0  0  0  0  0  0  0  0  0  0  0  0
   34.4890   39.4640   30.6650 C   0  0  0  0  0  0  0  0  0  0  0  0
   39.6920   38.9070   31.7420 C   0  0  0  0  0  0  0  0  0  0  0  0
   35.6350   39.2220   31.4000 C   0  0  0  0  0  0  0  0  0  0  0  0
   38.3850   39.0000   31.4320 O   0  0  0  0  0  0  0  0  0  0  0  0
   34.1090   36.6660   30.6820 C   0  0  0  0  0  0  0  0  0  0  0  0
   32.0840   36.6110   29.8090 O   0  0  0  0  0  0  0  0  0  0  0  0
   35.1910   36.8930   31.4560 C   0  0  0  0  0  0  0  0  0  0  0  0
   41.2950   42.9510   31.5440 C   0  0  0  0  0  0  0  0  0  0  0  0
   38.8960   41.2520   31.9640 C   0  0  0  0  0  0  0  0  0  0  0  0
  1 12  1  0
  1 21  1  0
  2 14  1  0
  3  8  1  0
  3 17  2  0
  4 12  1  0
  5  2  1  0
  8 13  2  0
  9 21  1  0
 10  9  2  3
 11  8  1  0
 12 20  1  0
 13 15  1  0
 15  6  2  0
 15 10  1  0
 16 14  1  0
 16  9  1  0
 17 19  1  0
 18  3  1  0
 19  6  1  0
 21  7  1  0
M  END
$$$$

     RDKit          3D

  7  6  0  0  0  0  0  0  0  0999 V2000
   42.3090   40.4010   29.7780 C   0  0  0  0  0  0  0  0  0  0  0  0
   38.4090   42.3490   29.7400 C   0  0  0  0  0  0  0  0  0  0  0  0
   42.8670   39.0490   30.1060 C   0  0  0  0  0  0  0  0  0  0  0  0
   39.4930   41.5800   29.8070 C   0  0  0  0  0  0  0  0  0  0  0  0
   41.6450   41.0020   30.9820 C   0  0  0  0  0  0  0  0  0  0  0  0
   40.7430   42.1790   30.3820 C   0  0  0  0  0  0  0  0  0  0  0  0
   37.1110   41.8870   29.7050 N   0  0  0  0  0  0  0  0  0  0  0  0
  1  3  1  0
  1  5  1  0
  2  4  1  0
  4  6  1  0
  6  5  1  0
  7  2  1  0
M  END
$$$$

     RDKit          3D

 10 10  0  0  0  0  0  0  0  0999 V2000
   41.1580   40.9690   29.5750 C   0  0  0  0  0  0  0  0  0  0  0  0
   39.1440   40.1350   30.8180 C   0  0  0  0  0  0  0  0  0  0  0  0
   40.4000   39.0200   28.9620 O   0  0  0  0  0  0  0  0  0  0  0  0
   37.7270   41.5980   32.2290 N   0  0  0  0  0  0  0  0  0  0  0  0
   36.5450   41.0620   31.8730 C   0  0  0  0  0  0  0  0  0  0  0  0
   38.8380   41.4620   31.3290 C   0  0  0  0  0  0  0  0  0  0  0  0
   36.5720   39.8110   31.0840 C   0  0  0  0  0  0  0  0  0  0  0  0
   34.9800   40.9350   32.8290 Br  0  0  0  0  0  0  0  0  0  0  0  0
   37.8620   39.1940   30.6510 C   0  0  0  0  0  0  0  0  0  0  0  0
   40.2500   39.8250   29.9830 C   0  0  0  0  0  0  0  0  0  0  0  0
  2 10  1  0
  2  6  1  0
  3 10  1  0
  5  4  1  0
  5  8  1  0
  6  4  1  0
  7  5  1  0
  9  2  1  0
  9  7  1  0
 10  1  1  0
M  END
$$$$

     RDKit          3D

 26 29  0  0  0  0  0  0  0  0999 V2000
   35.2330   36.2620   31.9740 O   0  0  0  0  0  0  0  0  0  0  0  0
   37.9720   32.5380   33.1130 C   0  0  0  0  0  0  0  0  0  0  0  0
   36.1860   40.3280   32.2010 C   0  0  0  0  0  0  0  0  0  0  0  0
   38.0850   41.1460   31.3600 C   0  0  0  0  0  0  0  0  0  0  0  0
   40.0010   42.5580   30.3600 C   0  0  0  0  0  0  0  0  0  0  0  0
   35.6080   34.5130   31.4370 N   0  0  0  0  0  0  0  0  0  0  0  0
   37.4880   31.2740   32.7970 C   0  0  0  0  0  0  0  0  0  0  0  0
   39.1500   41.4200   30.4520 C   0  0  0  0  0  0  0  0  0  0  0  0
   36.0740   35.5950   31.7610 C   0  0  0  0  0  0  0  0  0  0  0  0
   38.3660   43.5600   32.2260 S   0  0  0  0  0  0  0  0  0  0  0  0
   37.9220   34.8070   32.4560 N   0  0  0  0  0  0  0  0  0  0  0  0
   39.6850   43.9040   30.4200 C   0  0  0  0  0  0  0  0  0  0  0  0
   35.5410   32.1610   31.6740 N   0  0  0  0  0  0  0  0  0  0  0  0
   41.4270   42.2450   30.8090 C   0  0  0  0  0  0  0  0  0  0  0  0
   37.6010   42.0750   32.1910 C   0  0  0  0  0  0  0  0  0  0  0  0
   37.4400   36.0330   32.0280 C   0  0  0  0  0  0  0  0  0  0  0  0
   37.3940   38.3550   30.9110 C   0  0  0  0  0  0  0  0  0  0  0  0
   38.1240   37.3490   31.8510 C   0  0  0  0  0  0  0  0  0  0  0  0
   37.4410   39.8910   31.5250 C   0  0  0  0  0  0  0  0  0  0  0  0
   36.2600   31.1480   32.1380 C   0  0  0  0  0  0  0  0  0  0  0  0
   36.2910   41.7400   32.3130 N   0  0  0  0  0  0  0  0  0  0  0  0
   39.2500   44.1940   29.3870 O   0  0  0  0  0  0  0  0  0  0  0  0
   39.6720   40.4210   29.9430 O   0  0  0  0  0  0  0  0  0  0  0  0
   36.1050   33.3890   31.8550 C   0  0  0  0  0  0  0  0  0  0  0  0
   37.3160   33.5630   32.4770 C   0  0  0  0  0  0  0  0  0  0  0  0
   40.5590   44.7770   29.4470 C   0  0  0  0  0  0  0  0  0  0  0  0
  3 21  1  0
  4  8  1  0
  4 19  1  0
  4 15  1  0
  5  8  1  0
  5 14  1  0
  6  9  1  0
  6 24  2  0
  7  2  2  0
  9  1  2  0
  9 16  1  0
 11 25  2  0
 12  5  1  0
 13 24  1  0
 13 20  2  0
 15 10  2  0
 15 21  1  0
 16 18  1  0
 16 11  1  0
 17 18  1  0
 19 17  1  0
 19  3  1  0
 20  7  1  0
 22 26  1  0
 22 12  1  0
 23  8  2  0
 24 25  1  0
 25  2  1  0
 26 12  1  0
M  END
$$$$

     RDKit          3D

 10 10  0  0  0  0  0  0  0  0999 V2000
   40.1070   40.0770   29.1600 C   0  0  0  0  0  0  0  0  0  0  0  0
   37.9800   42.0590   29.8680 C   0  0  0  0  0  0  0  0  0  0  0  0
   41.1820   39.3400   28.4140 C   0  0  0  0  0  0  0  0  0  0  0  0
   42.1820   40.7940   30.2010 C   0  0  0  0  0  0  0  0  0  0  0  0
   40.7940   40.9360   30.1220 C   0  0  0  0  0  0  0  0  0  0  0  0
   38.3310   43.3080   29.6390 O   0  0  0  0  0  0  0  0  0  0  0  0
   42.3460   39.7030   29.2190 C   0  0  0  0  0  0  0  0  0  0  0  0
   38.6140   41.5590   31.0990 O   0  0  0  0  0  0  0  0  0  0  0  0
   40.0320   41.7490   31.1290 C   0  0  0  0  0  0  0  0  0  0  0  0
   37.1760   41.1880   29.3680 O   0  0  0  0  0  0  0  0  0  0  0  0
  1  5  1  0
  2  8  1  0
  3  1  1  0
  3  7  1  0
  5  4  1  0
  5  9  1  0
  6  2  1  0
  7  4  1  0
  8  9  1  0
 10  2  2  0
M  END
$$$$

     RDKit          3D

 11 10  0  0  0  0  0  0  0  0999 V2000
   38.3650   41.2600   31.0840 C   0  0  0  0  0  0  0  0  0  0  0  0
   39.4170   39.3480   29.3560 O   0  0  0  0  0  0  0  0  0  0  0  0
   39.7070   41.7550   30.9570 C   0  0  0  0  0  0  0  0  0  0  0  0
   41.2500   38.7100   30.1720 O   0  0  0  0  0  0  0  0  0  0  0  0
   38.0330   40.1240   31.2890 O   0  0  0  0  0  0  0  0  0  0  0  0
   40.3490   43.5940   32.2430 N   0  0  0  0  0  0  0  0  0  0  0  0
   36.9210   43.4200   31.5740 N   0  0  0  0  0  0  0  0  0  0  0  0
   40.4950   40.5180   31.3060 C   0  0  0  0  0  0  0  0  0  0  0  0
   40.3000   39.4700   30.2110 C   0  0  0  0  0  0  0  0  0  0  0  0
   39.7630   42.8000   31.9520 N   0  0  0  0  0  0  0  0  0  0  0  0
   37.2870   42.3370   31.0710 C   0  0  0  0  0  0  0  0  0  0  0  0
  1  5  2  0
  2  9  2  0
  3  1  1  0
  3  8  1  0
  3 10  1  0
  4  9  1  0
  9  8  1  0
 10  6  2  0
 11  1  1  0
 11  7  2  0
M  END
$$$$

     RDKit          3D

 22 21  0  0  0  0  0  0  0  0999 V2000
   38.4260   41.7830   31.4750 O   0  0  0  0  0  0  0  0  0  0  0  0
   36.3670   35.4640   31.9150 C   0  0  0  0  0  0  0  0  0  0  0  0
   36.2740   32.2160   33.1490 C   0  0  0  0  0  0  0  0  0  0  0  0
   37.9110   33.7070   30.7950 C   0  0  0  0  0  0  0  0  0  0  0  0
   36.0270   41.7090   29.9650 N   0  0  0  0  0  0  0  0  0  0  0  0
   36.8080   37.4290   33.1690 C   0  0  0  0  0  0  0  0  0  0  0  0
   39.5590   40.9390   33.1940 O   0  0  0  0  0  0  0  0  0  0  0  0
   35.7360   43.2230   27.6070 C   0  0  0  0  0  0  0  0  0  0  0  0
   34.9030   39.9660   28.6960 C   0  0  0  0  0  0  0  0  0  0  0  0
   34.0130   41.8410   26.8020 C   0  0  0  0  0  0  0  0  0  0  0  0
   37.4870   38.7840   33.3030 C   0  0  0  0  0  0  0  0  0  0  0  0
   34.4510   42.4880   28.0860 C   0  0  0  0  0  0  0  0  0  0  0  0
   34.9860   41.4450   29.0380 C   0  0  0  0  0  0  0  0  0  0  0  0
   38.0940   39.4010   32.0280 C   0  0  0  0  0  0  0  0  0  0  0  0
   36.3090   40.7110   30.6960 C   0  0  0  0  0  0  0  0  0  0  0  0
   36.9670   34.2000   31.8540 C   0  0  0  0  0  0  0  0  0  0  0  0
   36.7880   39.7640   31.2430 C   0  0  0  0  0  0  0  0  0  0  0  0
   37.1470   36.5350   32.0960 N   0  0  0  0  0  0  0  0  0  0  0  0
   35.1230   35.5220   32.1070 O   0  0  0  0  0  0  0  0  0  0  0  0
   39.3620   38.5000   31.7370 C   0  0  0  0  0  0  0  0  0  0  0  0
   38.7140   40.7740   32.2370 C   0  0  0  0  0  0  0  0  0  0  0  0
   36.8570   33.4130   32.9170 N   0  0  0  0  0  0  0  0  0  0  0  0
  1 21  2  0
  2 18  1  0
  2 19  2  0
  5 15  1  0
  6 11  1  0
  8 12  1  0
 10 12  1  0
 12 13  1  0
 13  9  1  0
 13  5  1  0
 14 20  1  0
 14 21  1  0
 14 11  1  0
 15 17  1  0
 16  4  1  0
 16  2  1  0
 16 22  1  0
 17 14  1  0
 18  6  2  3
 21  7  1  0
 22  3  1  0
M  END
$$$$

     RDKit          3D

  7  6  0  0  0  0  0  0  0  0999 V2000
   41.2410   41.5880   30.2090 C   0  0  0  0  0  0  0  0  0  0  0  0
   39.9930   39.0540   28.6560 O   0  0  0  0  0  0  0  0  0  0  0  0
   40.3360   40.3540   27.2680 C   0  0  0  0  0  0  0  0  0  0  0  0
   39.9560   40.2260   28.7440 C   0  0  0  0  0  0  0  0  0  0  0  0
   40.1590   41.2560   29.5930 C   0  0  0  0  0  0  0  0  0  0  0  0
   39.4490   42.5760   29.0210 C   0  0  0  0  0  0  0  0  0  0  0  0
   39.6250   43.7960   29.6670 O   0  0  0  0  0  0  0  0  0  0  0  0
  2  4  2  0
  3  4  1  0
  4  5  1  0
  5  1  2  0
  6  5  1  0
  6  7  1  0
M  END
$$$$

     RDKit          3D

  9  9  0  0  0  0  0  0  0  0999 V2000
   41.3640   40.6110   30.7960 C   0  0  0  0  0  0  0  0  0  0  0  0
   41.1140   39.0820   28.8980 C   0  0  0  0  0  0  0  0  0  0  0  0
   41.6680   43.4070   31.2890 O   0  0  0  0  0  0  0  0  0  0  0  0
   41.9510   39.5540   30.0800 C   0  0  0  0  0  0  0  0  0  0  0  0
   41.1950   42.4640   32.2900 C   0  0  0  0  0  0  0  0  0  0  0  0
   40.9540   41.0310   31.8410 C   0  0  0  0  0  0  0  0  0  0  0  0
   40.0200   40.1160   28.8860 C   0  0  0  0  0  0  0  0  0  0  0  0
   39.1600   39.5750   29.9790 O   0  0  0  0  0  0  0  0  0  0  0  0
   40.4030   41.3040   29.4570 C   0  0  0  0  0  0  0  0  0  0  0  0
  1  6  1  0
  2  4  1  0
  3  5  1  0
  4  1  1  0
  6  5  2  3
  7  2  1  0
  7  9  1  0
  7  8  1  0
  9  1  1  0
M  END
$$$$

     RDKit          3D

  8  7  0  0  0  0  0  0  0  0999 V2000
   40.2760   36.9050   30.7300 O   0  0  0  0  0  0  0  0  0  0  0  0
   40.4420   39.2460   30.6770 C   0  0  0  0  0  0  0  0  0  0  0  0
   41.1800   41.5320   30.2890 C   0  0  0  0  0  0  0  0  0  0  0  0
   42.2430   37.7550   30.4870 O   0  0  0  0  0  0  0  0  0  0  0  0
   39.7140   39.4690   29.6190 O   0  0  0  0  0  0  0  0  0  0  0  0
   40.9450   37.8560   30.6450 C   0  0  0  0  0  0  0  0  0  0  0  0
   41.2860   40.4320   31.0590 C   0  0  0  0  0  0  0  0  0  0  0  0
   40.4040   41.8340   30.3330 O   0  0  0  0  0  0  0  0  0  0  0  0
  2  5  1  0
  2  7  1  0
  3  8  1  0
  3  7  1  0
  4  6  2  0
  6  2  1  0
  6  1  1  0
M  END
$$$$

     RDKit          3D

 12 12  0  0  0  0  0  0  0  0999 V2000
   38.8630   40.8630   32.0980 C   0  0  0  0  0  0  0  0  0  0  0  0
   37.7480   42.4260   28.7720 C   0  0  0  0  0  0  0  0  0  0  0  0
   36.4990   40.3040   32.5530 O   0  0  0  0  0  0  0  0  0  0  0  0
   37.5530   41.8740   30.0100 C   0  0  0  0  0  0  0  0  0  0  0  0
   39.4860   40.2550   29.7550 C   0  0  0  0  0  0  0  0  0  0  0  0
   40.4500   39.6130   30.2430 O   0  0  0  0  0  0  0  0  0  0  0  0
   37.0470   40.0090   33.8530 C   0  0  0  0  0  0  0  0  0  0  0  0
   39.4360   40.3020   28.4530 O   0  0  0  0  0  0  0  0  0  0  0  0
   36.5740   42.3490   30.7010 O   0  0  0  0  0  0  0  0  0  0  0  0
   37.6370   41.0170   33.0140 C   0  0  0  0  0  0  0  0  0  0  0  0
   39.5320   39.6600   32.5930 O   0  0  0  0  0  0  0  0  0  0  0  0
   38.4950   41.0090   30.6150 C   0  0  0  0  0  0  0  0  0  0  0  0
  1 11  1  0
  2  4  2  0
  3 10  1  0
  3  7  1  0
  4 12  1  0
  4  9  1  0
  5  6  1  0
  8  5  2  0
 10  1  1  0
 10  7  1  0
 12  5  1  0
 12  1  1  0
M  END
$$$$

     RDKit          3D

 17 18  0  0  0  0  0  0  0  0999 V2000
   36.0660   37.7420   31.4910 C   0  0  0  0  0  0  0  0  0  0  0  0
   41.9780   40.3660   30.8360 C   0  0  0  0  0  0  0  0  0  0  0  0
   39.4430   42.1500   30.2440 C   0  0  0  0  0  0  0  0  0  0  0  0
   43.4610   39.9240   30.6460 C   0  0  0  0  0  0  0  0  0  0  0  0
   41.0910   42.9280   30.5260 S   0  0  0  0  0  0  0  0  0  0  0  0
   39.2190   39.4730   30.5740 C   0  0  0  0  0  0  0  0  0  0  0  0
   37.1010   38.7550   31.4060 C   0  0  0  0  0  0  0  0  0  0  0  0
   37.5820   41.2210   31.5690 C   0  0  0  0  0  0  0  0  0  0  0  0
   40.8860   39.1120   30.3710 S   0  0  0  0  0  0  0  0  0  0  0  0
   38.6790   40.9160   30.6190 C   0  0  0  0  0  0  0  0  0  0  0  0
   38.2480   38.4810   30.5760 C   0  0  0  0  0  0  0  0  0  0  0  0
   41.6260   44.1850   30.9640 O   0  0  0  0  0  0  0  0  0  0  0  0
   42.0100   41.8060   30.7380 O   0  0  0  0  0  0  0  0  0  0  0  0
   40.7440   43.5380   28.6620 O   0  0  0  0  0  0  0  0  0  0  0  0
   44.4210   41.0010   30.2320 C   0  0  0  0  0  0  0  0  0  0  0  0
   38.9250   43.2810   30.9750 O   0  0  0  0  0  0  0  0  0  0  0  0
   36.9820   40.0340   32.2420 C   0  0  0  0  0  0  0  0  0  0  0  0
  2  4  1  0
  3  5  1  0
  3 10  1  0
  3 16  1  0
  5 13  1  0
  5 12  1  0
  6 11  1  0
  6 10  1  0
  7  1  1  0
  7 17  1  0
  8 17  1  0
  9  6  1  0
  9  2  1  0
 10  8  2  0
 11  7  1  0
 13  2  1  0
 14  5  1  0
 15  4  1  0
M  END
$$$$

     RDKit          3D

 14 15  0  0  0  0  0  0  0  0999 V2000
   38.2080   39.3690   31.2560 C   0  0  0  0  0  0  0  0  0  0  0  0
   39.7950   42.9580   31.7590 C   0  0  0  0  0  0  0  0  0  0  0  0
   39.2930   41.6230   31.2160 C   0  0  0  0  0  0  0  0  0  0  0  0
   37.2200   40.5710   31.4860 C   0  0  0  0  0  0  0  0  0  0  0  0
   39.3100   42.9830   32.9940 O   0  0  0  0  0  0  0  0  0  0  0  0
   35.8690   38.3470   32.2970 C   0  0  0  0  0  0  0  0  0  0  0  0
   39.0540   38.8290   29.9250 O   0  0  0  0  0  0  0  0  0  0  0  0
   39.5040   37.4790   30.2930 C   0  0  0  0  0  0  0  0  0  0  0  0
   35.7400   40.6920   31.5690 C   0  0  0  0  0  0  0  0  0  0  0  0
   37.2380   38.2210   31.9290 C   0  0  0  0  0  0  0  0  0  0  0  0
   35.0210   39.5150   32.0210 C   0  0  0  0  0  0  0  0  0  0  0  0
   37.9890   41.5880   31.8320 C   0  0  0  0  0  0  0  0  0  0  0  0
   39.2980   44.2830   31.2740 C   0  0  0  0  0  0  0  0  0  0  0  0
   39.7380   40.2680   31.7220 C   0  0  0  0  0  0  0  0  0  0  0  0
  1  7  1  0
  1  4  1  0
  1 14  1  0
  1 10  1  0
  2 13  1  0
  2  5  1  0
  3 14  1  0
  3  2  1  0
  3 12  1  0
  4  9  1  0
  4 12  1  0
  7  8  1  0
  9 11  1  0
 10  6  2  0
 11  6  1  0
M  END
$$$$

     RDKit          3D

 12 12  0  0  0  0  0  0  0  0999 V2000
   39.8230   40.6200   30.9470 C   0  0  0  0  0  0  0  0  0  0  0  0
   38.1500   41.7510   28.9750 C   0  0  0  0  0  0  0  0  0  0  0  0
   36.1000   41.1240   29.7290 C   0  0  0  0  0  0  0  0  0  0  0  0
   38.3550   40.1680   31.0450 C   0  0  0  0  0  0  0  0  0  0  0  0
   40.2280   41.9550   31.8380 S   0  0  0  0  0  0  0  0  0  0  0  0
   38.6720   40.9370   27.9270 O   0  0  0  0  0  0  0  0  0  0  0  0
   40.8060   40.2910   27.3260 O   0  0  0  0  0  0  0  0  0  0  0  0
   37.4840   40.8930   30.0540 C   0  0  0  0  0  0  0  0  0  0  0  0
   39.2740   41.9210   32.9870 O   0  0  0  0  0  0  0  0  0  0  0  0
   40.3610   40.1030   29.6450 C   0  0  0  0  0  0  0  0  0  0  0  0
   41.4240   39.0430   29.8730 C   0  0  0  0  0  0  0  0  0  0  0  0
   39.9660   40.4220   28.1990 C   0  0  0  0  0  0  0  0  0  0  0  0
  1  4  1  0
  1  5  1  0
  2  8  1  0
  5  9  2  0
  6 12  1  0
  6  2  1  0
  7 12  2  0
  8  3  1  0
  8  4  1  0
 10 11  1  0
 10  1  1  0
 12 10  1  0
M  END
$$$$
