
     RDKit          3D

 29 29  0  0  0  0  0  0  0  0999 V2000
   41.5210   35.3070   34.8720 O   0  0  0  0  0  0  0  0  0  0  0  0
   37.1430   35.2110   32.6270 C   0  0  0  0  0  0  0  0  0  0  0  0
   37.7790   33.8830   32.5670 C   0  0  0  0  0  0  0  0  0  0  0  0
   34.1290   40.1420   28.5950 O   0  0  0  0  0  0  0  0  0  0  0  0
   35.1260   38.3970   31.5130 C   0  0  0  0  0  0  0  0  0  0  0  0
   43.8730   38.4840   35.6000 C   0  0  0  0  0  0  0  0  0  0  0  0
   43.0470   34.8970   31.7180 O   0  0  0  0  0  0  0  0  0  0  0  0
   34.5700   37.8230   29.1600 C   0  0  0  0  0  0  0  0  0  0  0  0
   34.9880   37.4830   30.5100 C   0  0  0  0  0  0  0  0  0  0  0  0
   39.3780   32.4070   33.4680 C   0  0  0  0  0  0  0  0  0  0  0  0
   42.0920   35.7250   33.6950 C   0  0  0  0  0  0  0  0  0  0  0  0
   43.1640   36.1120   36.2330 C   0  0  0  0  0  0  0  0  0  0  0  0
   41.3530   33.5460   32.6550 C   0  0  0  0  0  0  0  0  0  0  0  0
   43.3180   36.5480   33.8840 N   0  0  0  0  0  0  0  0  0  0  0  0
   37.4080   32.9240   34.8490 C   0  0  0  0  0  0  0  0  0  0  0  0
   41.1300   33.2400   31.4920 O   0  0  0  0  0  0  0  0  0  0  0  0
   32.5700   38.6830   28.4590 O   0  0  0  0  0  0  0  0  0  0  0  0
   40.5470   33.1730   33.6420 O   0  0  0  0  0  0  0  0  0  0  0  0
   43.2780   37.6990   32.9440 C   0  0  0  0  0  0  0  0  0  0  0  0
   33.6890   36.4230   32.4900 C   0  0  0  0  0  0  0  0  0  0  0  0
   42.5080   34.4860   32.9240 C   0  0  0  0  0  0  0  0  0  0  0  0
   43.4090   37.0790   35.2280 C   0  0  0  0  0  0  0  0  0  0  0  0
   35.2960   36.0560   30.5980 C   0  0  0  0  0  0  0  0  0  0  0  0
   38.3160   33.4740   33.8590 C   0  0  0  0  0  0  0  0  0  0  0  0
   34.7750   35.5270   31.9190 C   0  0  0  0  0  0  0  0  0  0  0  0
   41.6600   35.5750   36.2390 C   0  0  0  0  0  0  0  0  0  0  0  0
   40.2830   35.4390   36.8040 O   0  0  0  0  0  0  0  0  0  0  0  0
   33.7710   39.0490   28.6890 C   0  0  0  0  0  0  0  0  0  0  0  0
   35.8700   35.3870   32.9640 C   0  0  0  0  0  0  0  0  0  0  0  0
  1 26  1  0
  2 29  1  0
  3  2  1  0
  3 24  1  0
  4 28  1  0
  8  9  1  0
  9 23  1  0
  9  5  2  0
 10 18  1  0
 10 24  1  0
 11 21  1  0
 11 14  1  0
 11  1  1  0
 12 26  1  0
 13 21  1  0
 13 18  1  0
 14 22  1  0
 16 13  2  0
 17 28  2  0
 19 14  1  0
 21  7  1  0
 22  6  1  0
 22 12  1  0
 23 25  1  0
 24 15  1  0
 25 20  1  0
 25 29  1  0
 26 27  2  0
 28  8  1  0
M  END
$$$$

     RDKit          3D

  9  9  0  0  0  0  0  0  0  0999 V2000
   40.5260   32.2990   31.5710 O   0  0  0  0  0  0  0  0  0  0  0  0
   39.7200   33.6680   33.5590 C   0  0  0  0  0  0  0  0  0  0  0  0
   39.5600   36.1070   33.1710 C   0  0  0  0  0  0  0  0  0  0  0  0
   42.0260   34.2620   30.7400 N   0  0  0  0  0  0  0  0  0  0  0  0
   41.3620   34.5690   32.0240 C   0  0  0  0  0  0  0  0  0  0  0  0
   40.2840   33.3710   32.2590 C   0  0  0  0  0  0  0  0  0  0  0  0
   40.9590   36.0010   32.5220 N   0  0  0  0  0  0  0  0  0  0  0  0
   38.8110   37.4420   33.3700 N   0  0  0  0  0  0  0  0  0  0  0  0
   38.9920   34.8160   33.6350 N   0  0  0  0  0  0  0  0  0  0  0  0
  2  9  1  0
  3  8  1  0
  3  9  1  0
  5  4  1  0
  5  6  1  0
  5  7  1  0
  6  1  1  0
  6  2  1  0
  7  3  2  0
M  END
$$$$

     RDKit          3D

  9  8  0  0  0  0  0  0  0  0999 V2000
   39.1030   37.3560   30.6900 N   0  0  0  0  0  0  0  0  0  0  0  0
   41.2600   36.1620   31.2150 C   0  0  0  0  0  0  0  0  0  0  0  0
   42.1150   38.4430   31.1160 O   0  0  0  0  0  0  0  0  0  0  0  0
   41.3050   35.4000   32.5540 C   0  0  0  0  0  0  0  0  0  0  0  0
   42.0230   38.7470   29.8000 O   0  0  0  0  0  0  0  0  0  0  0  0
   40.1410   36.8270   30.4260 C   0  0  0  0  0  0  0  0  0  0  0  0
   40.8630   36.3170   33.5650 N   0  0  0  0  0  0  0  0  0  0  0  0
   42.4150   37.0930   31.4160 C   0  0  0  0  0  0  0  0  0  0  0  0
   43.6350   36.6170   31.4520 O   0  0  0  0  0  0  0  0  0  0  0  0
  2  6  1  0
  2  8  1  0
  2  4  1  0
  3  8  1  0
  4  7  1  0
  5  3  1  0
  6  1  2  0
  8  9  2  0
M  END
$$$$

     RDKit          3D

 31 35  0  0  0  0  0  0  0  0999 V2000
   43.3180   39.8480   30.1670 C   0  0  0  0  0  0  0  0  0  0  0  0
   38.6810   32.9690   32.7660 C   0  0  0  0  0  0  0  0  0  0  0  0
   42.5930   38.6760   32.1000 C   0  0  0  0  0  0  0  0  0  0  0  0
   44.4350   40.1830   32.4310 C   0  0  0  0  0  0  0  0  0  0  0  0
   38.4760   35.4500   32.5130 N   0  0  0  0  0  0  0  0  0  0  0  0
   39.5800   32.9220   31.7260 C   0  0  0  0  0  0  0  0  0  0  0  0
   39.5190   36.6770   32.4680 S   0  0  0  0  0  0  0  0  0  0  0  0
   37.8080   34.4120   34.4570 O   0  0  0  0  0  0  0  0  0  0  0  0
   37.3020   36.0370   32.2370 C   0  0  0  0  0  0  0  0  0  0  0  0
   37.7020   37.4240   30.4480 C   0  0  0  0  0  0  0  0  0  0  0  0
   38.8840   30.6380   33.0320 C   0  0  0  0  0  0  0  0  0  0  0  0
   41.3330   38.4440   30.0760 C   0  0  0  0  0  0  0  0  0  0  0  0
   38.6870   29.5160   33.7620 O   0  0  0  0  0  0  0  0  0  0  0  0
   38.2860   31.8140   33.4250 C   0  0  0  0  0  0  0  0  0  0  0  0
   36.6800   36.8450   33.0370 O   0  0  0  0  0  0  0  0  0  0  0  0
   36.4110   27.5740   35.7220 O   0  0  0  0  0  0  0  0  0  0  0  0
   37.1290   28.3660   35.1440 C   0  0  0  0  0  0  0  0  0  0  0  0
   39.7480   30.5380   31.9460 C   0  0  0  0  0  0  0  0  0  0  0  0
   40.8430   37.1910   31.8540 N   0  0  0  0  0  0  0  0  0  0  0  0
   39.4560   37.5070   33.5360 O   0  0  0  0  0  0  0  0  0  0  0  0
   43.5740   39.4630   31.4640 C   0  0  0  0  0  0  0  0  0  0  0  0
   39.0230   37.3150   31.0430 C   0  0  0  0  0  0  0  0  0  0  0  0
   36.8530   36.1930   30.8440 C   0  0  0  0  0  0  0  0  0  0  0  0
   42.7420   38.8920   33.4150 C   0  0  0  0  0  0  0  0  0  0  0  0
   43.9200   39.5680   33.7080 C   0  0  0  0  0  0  0  0  0  0  0  0
   36.7780   28.7660   33.9750 O   0  0  0  0  0  0  0  0  0  0  0  0
   38.1620   34.2940   33.2520 C   0  0  0  0  0  0  0  0  0  0  0  0
   42.1870   39.4650   29.4980 C   0  0  0  0  0  0  0  0  0  0  0  0
   41.5480   38.0760   31.3680 C   0  0  0  0  0  0  0  0  0  0  0  0
   37.6210   29.5670   34.8230 C   0  0  0  0  0  0  0  0  0  0  0  0
   40.1900   31.7350   31.3880 C   0  0  0  0  0  0  0  0  0  0  0  0
  1 21  1  0
  2 27  1  0
  2 14  1  0
  3 24  1  0
  4 25  1  0
  5 27  1  0
  6  2  2  0
  7  5  1  0
  7 20  1  0
  9  5  1  0
  9 15  2  0
 10 23  1  0
 10 22  1  0
 11 14  2  0
 11 13  1  0
 12 29  2  0
 17 16  1  0
 18 11  1  0
 19  7  1  0
 21  3  2  0
 21  4  1  0
 22  7  1  0
 23  9  1  0
 24 25  1  0
 26 30  1  0
 26 17  1  0
 27  8  2  0
 28 12  1  0
 28  1  2  0
 29 19  1  0
 29  3  1  0
 30 13  1  0
 30 17  1  0
 31  6  1  0
 31 18  2  0
M  END
$$$$

     RDKit          3D

 19 21  0  0  0  0  0  0  0  0999 V2000
   42.6010   37.0760   32.3410 C   0  0  0  0  0  0  0  0  0  0  0  0
   43.0320   37.9340   34.8060 C   0  0  0  0  0  0  0  0  0  0  0  0
   39.6330   34.9560   32.7840 C   0  0  0  0  0  0  0  0  0  0  0  0
   38.9740   32.7010   32.7830 N   0  0  0  0  0  0  0  0  0  0  0  0
   38.0800   36.5940   32.7330 O   0  0  0  0  0  0  0  0  0  0  0  0
   36.6670   32.0140   33.4670 C   0  0  0  0  0  0  0  0  0  0  0  0
   35.8330   34.6920   33.2030 C   0  0  0  0  0  0  0  0  0  0  0  0
   34.9040   33.6990   33.4790 C   0  0  0  0  0  0  0  0  0  0  0  0
   37.6080   32.9770   33.1080 C   0  0  0  0  0  0  0  0  0  0  0  0
   43.6340   37.9290   32.5160 C   0  0  0  0  0  0  0  0  0  0  0  0
   35.3220   32.3240   33.6340 C   0  0  0  0  0  0  0  0  0  0  0  0
   40.7790   35.8430   32.8590 C   0  0  0  0  0  0  0  0  0  0  0  0
   44.0310   38.0800   33.9000 C   0  0  0  0  0  0  0  0  0  0  0  0
   41.7360   36.5930   33.2930 C   0  0  0  0  0  0  0  0  0  0  0  0
   37.2300   34.2790   33.0910 C   0  0  0  0  0  0  0  0  0  0  0  0
   41.9420   37.0780   34.5650 C   0  0  0  0  0  0  0  0  0  0  0  0
   39.9450   33.6230   32.6070 N   0  0  0  0  0  0  0  0  0  0  0  0
   38.2630   35.3610   32.8600 C   0  0  0  0  0  0  0  0  0  0  0  0
   39.4360   31.6780   32.7150 O   0  0  0  0  0  0  0  0  0  0  0  0
  1 10  1  0
  1 14  1  0
  3 12  2  0
  3 18  1  0
  4  9  1  0
  5 18  2  0
  6 11  1  0
  7  8  1  0
  8 11  2  0
  9  6  2  0
 10 13  1  0
 12 14  2  0
 13  2  1  0
 14 16  1  0
 15  9  1  0
 15  7  2  0
 16  2  2  0
 17  4  1  0
 17  3  1  0
 18 15  1  0
 19  4  1  0
M  END
$$$$

     RDKit          3D

 19 21  0  0  0  0  0  0  0  0999 V2000
   37.6960   34.4270   33.0750 C   0  0  0  0  0  0  0  0  0  0  0  0
   40.6790   32.7470   31.8830 O   0  0  0  0  0  0  0  0  0  0  0  0
   40.8090   37.1370   31.0590 C   0  0  0  0  0  0  0  0  0  0  0  0
   41.9720   37.5160   30.2750 C   0  0  0  0  0  0  0  0  0  0  0  0
   42.4520   39.9760   30.7120 C   0  0  0  0  0  0  0  0  0  0  0  0
   39.0540   34.2530   32.5960 C   0  0  0  0  0  0  0  0  0  0  0  0
   42.8430   36.1750   29.5320 Cl  0  0  0  0  0  0  0  0  0  0  0  0
   38.4290   36.5250   32.1560 C   0  0  0  0  0  0  0  0  0  0  0  0
   40.6280   35.8130   31.6220 C   0  0  0  0  0  0  0  0  0  0  0  0
   39.5920   32.9770   32.4500 C   0  0  0  0  0  0  0  0  0  0  0  0
   38.7560   31.7940   32.7040 N   0  0  0  0  0  0  0  0  0  0  0  0
   38.7140   37.7680   31.8310 N   0  0  0  0  0  0  0  0  0  0  0  0
   39.8970   38.0700   31.3960 C   0  0  0  0  0  0  0  0  0  0  0  0
   37.1650   33.6480   33.7630 O   0  0  0  0  0  0  0  0  0  0  0  0
   39.4250   35.4810   32.1520 C   0  0  0  0  0  0  0  0  0  0  0  0
   42.4180   38.6780   29.9310 C   0  0  0  0  0  0  0  0  0  0  0  0
   36.9500   35.9600   32.6930 S   0  0  0  0  0  0  0  0  0  0  0  0
   41.0980   40.5410   30.6100 O   0  0  0  0  0  0  0  0  0  0  0  0
   40.3200   39.4330   31.1570 O   0  0  0  0  0  0  0  0  0  0  0  0
  1 14  2  0
  2 10  2  0
  3 13  1  0
  3  9  1  0
  4  7  1  0
  4  3  1  0
  6 10  1  0
  6  1  1  0
  8 17  1  0
  9 15  1  0
 10 11  1  0
 12  8  1  0
 13 12  2  0
 15  8  2  0
 15  6  1  0
 16  4  1  0
 16  5  1  0
 17  1  1  0
 18  5  1  0
 18 19  1  0
 19 13  1  0
M  END
$$$$

     RDKit          3D

 10 11  0  0  0  0  0  0  0  0999 V2000
   43.4670   34.9980   32.6390 N   0  0  0  0  0  0  0  0  0  0  0  0
   42.6180   39.1040   29.3850 O   0  0  0  0  0  0  0  0  0  0  0  0
   45.8300   38.6760   30.9570 O   0  0  0  0  0  0  0  0  0  0  0  0
   43.7520   39.3300   31.3970 O   0  0  0  0  0  0  0  0  0  0  0  0
   43.7000   36.5000   30.8150 C   0  0  0  0  0  0  0  0  0  0  0  0
   44.3860   37.2350   32.1430 C   0  0  0  0  0  0  0  0  0  0  0  0
   42.2700   36.5580   31.3090 N   0  0  0  0  0  0  0  0  0  0  0  0
   43.6450   36.2380   32.2200 C   0  0  0  0  0  0  0  0  0  0  0  0
   42.6500   39.5840   30.8360 C   0  0  0  0  0  0  0  0  0  0  0  0
   44.7870   38.4480   32.0320 C   0  0  0  0  0  0  0  0  0  0  0  0
  2  9  1  0
  4 10  1  0
  5  7  1  0
  5  6  1  0
  5  8  1  0
  6 10  1  0
  6  8  1  0
  7  8  1  0
  8  1  1  0
  9  4  1  0
 10  3  1  0
M  END
$$$$

     RDKit          3D

 13 13  0  0  0  0  0  0  0  0999 V2000
   38.5830   36.6100   32.4600 C   0  0  0  0  0  0  0  0  0  0  0  0
   42.2110   34.8530   32.1010 C   0  0  0  0  0  0  0  0  0  0  0  0
   37.6650   34.6030   32.8330 N   0  0  0  0  0  0  0  0  0  0  0  0
   42.2570   33.4470   32.8240 C   0  0  0  0  0  0  0  0  0  0  0  0
   42.2840   34.5780   30.7430 O   0  0  0  0  0  0  0  0  0  0  0  0
   35.7190   36.4210   32.3560 Cl  0  0  0  0  0  0  0  0  0  0  0  0
   36.6610   33.5840   33.0220 C   0  0  0  0  0  0  0  0  0  0  0  0
   39.0170   34.4230   32.8630 C   0  0  0  0  0  0  0  0  0  0  0  0
   39.5120   33.2970   33.1860 O   0  0  0  0  0  0  0  0  0  0  0  0
   41.1890   35.9680   32.3760 C   0  0  0  0  0  0  0  0  0  0  0  0
   37.3530   35.8930   32.6120 C   0  0  0  0  0  0  0  0  0  0  0  0
   38.8670   37.9910   32.0710 O   0  0  0  0  0  0  0  0  0  0  0  0
   39.7480   35.6050   32.5100 C   0  0  0  0  0  0  0  0  0  0  0  0
  1 13  1  0
  1 11  2  0
  2 10  1  0
  2  4  1  0
  3  8  1  0
  3  7  1  0
  5  2  1  0
  6 11  1  0
  8  9  2  0
 11  3  1  0
 12  1  1  0
 13 10  1  0
 13  8  1  0
M  END
$$$$

     RDKit          3D

 21 22  0  0  0  0  0  0  0  0999 V2000
   43.3870   37.5660   32.3680 P   0  0  0  0  0  0  0  0  0  0  0  0
   44.0480   38.1770   30.9830 O   0  0  0  0  0  0  0  0  0  0  0  0
   36.3400   32.6950   33.4730 C   0  0  0  0  0  0  0  0  0  0  0  0
   43.8830   34.0500   31.6980 N   0  0  0  0  0  0  0  0  0  0  0  0
   34.7800   37.0470   32.5930 N   0  0  0  0  0  0  0  0  0  0  0  0
   37.9300   30.5530   33.5970 C   0  0  0  0  0  0  0  0  0  0  0  0
   37.3790   34.8150   32.8560 C   0  0  0  0  0  0  0  0  0  0  0  0
   36.2190   34.0690   33.2090 C   0  0  0  0  0  0  0  0  0  0  0  0
   44.2350   35.5510   29.9090 O   0  0  0  0  0  0  0  0  0  0  0  0
   37.0720   36.1600   32.5760 C   0  0  0  0  0  0  0  0  0  0  0  0
   37.5680   32.0560   33.4510 C   0  0  0  0  0  0  0  0  0  0  0  0
   35.1090   34.8500   33.1920 C   0  0  0  0  0  0  0  0  0  0  0  0
   38.6120   34.1380   32.7550 C   0  0  0  0  0  0  0  0  0  0  0  0
   40.1090   34.7550   32.2190 S   0  0  0  0  0  0  0  0  0  0  0  0
   43.7070   35.1600   31.1490 C   0  0  0  0  0  0  0  0  0  0  0  0
   41.6640   35.5750   32.2210 C   0  0  0  0  0  0  0  0  0  0  0  0
   42.3060   38.4460   33.0960 O   0  0  0  0  0  0  0  0  0  0  0  0
   42.6380   35.9910   31.7930 C   0  0  0  0  0  0  0  0  0  0  0  0
   44.5530   37.4310   33.3010 O   0  0  0  0  0  0  0  0  0  0  0  0
   38.7190   32.8290   33.1670 C   0  0  0  0  0  0  0  0  0  0  0  0
   35.5290   36.0610   32.8160 N   0  0  0  0  0  0  0  0  0  0  0  0
  1 17  1  0
  1 19  1  0
  2  1  2  0
  5 21  1  0
  7  8  1  0
  8  3  1  0
  9 15  2  0
 10 21  1  0
 10  7  2  0
 11  3  2  0
 11  6  1  0
 12  8  2  0
 13  7  1  0
 13 20  2  0
 14 16  3  0
 14 13  1  0
 15  4  1  0
 15 18  1  0
 18 16  1  0
 18  1  1  0
 20 11  1  0
 21 12  1  0
M  END
$$$$

     RDKit          3D

 15 15  0  0  0  0  0  0  0  0999 V2000
   41.9660   36.7720   30.6100 C   0  0  0  0  0  0  0  0  0  0  0  0
   40.7610   37.0020   32.7360 C   0  0  0  0  0  0  0  0  0  0  0  0
   42.8080   40.8790   33.5220 C   0  0  0  0  0  0  0  0  0  0  0  0
   42.7260   37.3360   29.5530 C   0  0  0  0  0  0  0  0  0  0  0  0
   40.7480   39.5160   33.1340 C   0  0  0  0  0  0  0  0  0  0  0  0
   40.0660   34.9680   33.8380 O   0  0  0  0  0  0  0  0  0  0  0  0
   41.2600   34.7110   31.8910 N   0  0  0  0  0  0  0  0  0  0  0  0
   40.7190   35.5340   32.9610 C   0  0  0  0  0  0  0  0  0  0  0  0
   41.9820   34.6710   29.7840 O   0  0  0  0  0  0  0  0  0  0  0  0
   42.7500   39.5350   30.9900 S   0  0  0  0  0  0  0  0  0  0  0  0
   41.7910   35.3200   30.7640 C   0  0  0  0  0  0  0  0  0  0  0  0
   40.9250   38.0340   33.7490 C   0  0  0  0  0  0  0  0  0  0  0  0
   41.3610   37.5180   31.6030 C   0  0  0  0  0  0  0  0  0  0  0  0
   41.0930   37.7240   34.8460 O   0  0  0  0  0  0  0  0  0  0  0  0
   42.0090   39.9850   32.5920 C   0  0  0  0  0  0  0  0  0  0  0  0
  1 11  1  0
  1 13  2  0
  2  8  1  0
  2 12  1  0
  4  1  1  0
  5 12  1  0
  7  8  1  0
  8  6  2  0
  9 11  2  0
 10 15  1  0
 11  7  1  0
 12 14  2  0
 13  2  1  0
 15  5  1  0
 15  3  1  0
M  END
$$$$

     RDKit          3D

 16 15  0  0  0  0  0  0  0  0999 V2000
   40.0860   29.3510   36.1920 O   0  0  0  0  0  0  0  0  0  0  0  0
   44.3800   36.3800   33.0080 O   0  0  0  0  0  0  0  0  0  0  0  0
   38.7010   35.9130   32.9260 O   0  0  0  0  0  0  0  0  0  0  0  0
   39.0680   30.3980   35.8430 S   0  0  0  0  0  0  0  0  0  0  0  0
   43.1300   36.0030   32.4200 C   0  0  0  0  0  0  0  0  0  0  0  0
   43.1710   34.6820   31.9870 O   0  0  0  0  0  0  0  0  0  0  0  0
   37.9090   30.4510   36.9230 O   0  0  0  0  0  0  0  0  0  0  0  0
   38.3600   29.6120   34.4380 C   0  0  0  0  0  0  0  0  0  0  0  0
   42.1650   37.2350   34.1430 O   0  0  0  0  0  0  0  0  0  0  0  0
   42.0100   36.1580   33.4020 C   0  0  0  0  0  0  0  0  0  0  0  0
   39.5150   35.9070   33.8100 C   0  0  0  0  0  0  0  0  0  0  0  0
   39.8890   32.0300   35.8810 C   0  0  0  0  0  0  0  0  0  0  0  0
   41.1720   33.9000   34.3470 C   0  0  0  0  0  0  0  0  0  0  0  0
   45.4900   36.4060   32.0720 C   0  0  0  0  0  0  0  0  0  0  0  0
   40.0680   32.9020   34.6060 C   0  0  0  0  0  0  0  0  0  0  0  0
   40.8810   35.2180   33.6460 C   0  0  0  0  0  0  0  0  0  0  0  0
  3 11  2  0
  4 12  1  0
  4  1  2  0
  4  7  2  0
  5  6  1  0
  5  2  1  0
  5 10  1  0
  8  4  1  0
 10 16  1  0
 10  9  1  0
 13 15  1  0
 14  2  1  0
 15 12  1  0
 16 11  1  0
 16 13  1  0
M  END
$$$$

     RDKit          3D

  9  8  0  0  0  0  0  0  0  0999 V2000
   41.8170   36.3560   33.4640 O   0  0  0  0  0  0  0  0  0  0  0  0
   38.8300   37.1380   31.2000 C   0  0  0  0  0  0  0  0  0  0  0  0
   36.3550   37.3650   30.9810 C   0  0  0  0  0  0  0  0  0  0  0  0
   39.5340   37.6270   29.9610 N   0  0  0  0  0  0  0  0  0  0  0  0
   37.4100   36.5380   31.6710 C   0  0  0  0  0  0  0  0  0  0  0  0
   39.7400   36.6250   32.3570 C   0  0  0  0  0  0  0  0  0  0  0  0
   34.9570   36.7210   31.1780 C   0  0  0  0  0  0  0  0  0  0  0  0
   41.8680   36.3210   31.3480 O   0  0  0  0  0  0  0  0  0  0  0  0
   41.2220   36.5240   32.4000 C   0  0  0  0  0  0  0  0  0  0  0  0
  2  5  1  0
  2  6  2  3
  3  7  1  0
  3  5  1  0
  4  2  1  0
  6  9  1  0
  8  9  2  0
  9  1  1  0
M  END
$$$$

     RDKit          3D

 16 16  0  0  0  0  0  0  0  0999 V2000
   35.7470   34.8530   33.2020 C   0  0  0  0  0  0  0  0  0  0  0  0
   44.5560   36.6480   32.4100 C   0  0  0  0  0  0  0  0  0  0  0  0
   37.2040   36.7110   31.6920 C   0  0  0  0  0  0  0  0  0  0  0  0
   39.8210   33.5260   32.6450 N   0  0  0  0  0  0  0  0  0  0  0  0
   40.0020   35.8790   31.8360 C   0  0  0  0  0  0  0  0  0  0  0  0
   42.4870   35.8400   31.3800 C   0  0  0  0  0  0  0  0  0  0  0  0
   35.8550   36.5210   31.4870 C   0  0  0  0  0  0  0  0  0  0  0  0
   37.8450   35.9980   32.6620 C   0  0  0  0  0  0  0  0  0  0  0  0
   39.2320   36.2190   32.8950 O   0  0  0  0  0  0  0  0  0  0  0  0
   41.3380   35.3790   32.2230 C   0  0  0  0  0  0  0  0  0  0  0  0
   45.6360   36.3400   33.3610 N   0  0  0  0  0  0  0  0  0  0  0  0
   35.0990   35.6560   32.2700 C   0  0  0  0  0  0  0  0  0  0  0  0
   43.7200   35.4060   32.1650 C   0  0  0  0  0  0  0  0  0  0  0  0
   41.0680   33.9330   31.9870 C   0  0  0  0  0  0  0  0  0  0  0  0
   37.0860   35.0560   33.3300 C   0  0  0  0  0  0  0  0  0  0  0  0
   33.7650   35.6380   32.1590 F   0  0  0  0  0  0  0  0  0  0  0  0
  1 15  1  0
  2 11  1  0
  3  8  1  0
  5 10  1  0
  5  9  1  0
  6 13  1  0
  7  3  2  0
  7 12  1  0
  8  9  1  0
  8 15  2  0
 10  6  1  0
 12  1  2  0
 13  2  1  0
 14 10  1  0
 14  4  1  0
 16 12  1  0
M  END
$$$$

     RDKit          3D

 13 14  0  0  0  0  0  0  0  0999 V2000
   41.6360   36.8870   31.6550 C   0  0  0  0  0  0  0  0  0  0  0  0
   42.5270   37.6650   30.7350 C   0  0  0  0  0  0  0  0  0  0  0  0
   41.8990   37.6570   32.7040 O   0  0  0  0  0  0  0  0  0  0  0  0
   43.1130   38.7490   30.8020 N   0  0  0  0  0  0  0  0  0  0  0  0
   43.5390   35.0280   31.7420 C   0  0  0  0  0  0  0  0  0  0  0  0
   41.0390   33.1620   32.2080 O   0  0  0  0  0  0  0  0  0  0  0  0
   43.0060   39.4790   31.9950 C   0  0  0  0  0  0  0  0  0  0  0  0
   42.0610   35.2940   31.4490 C   0  0  0  0  0  0  0  0  0  0  0  0
   39.9350   36.6990   31.8090 C   0  0  0  0  0  0  0  0  0  0  0  0
   39.9390   35.3920   32.6330 C   0  0  0  0  0  0  0  0  0  0  0  0
   41.7100   39.0540   32.6780 C   0  0  0  0  0  0  0  0  0  0  0  0
   41.2520   34.5570   32.5620 C   0  0  0  0  0  0  0  0  0  0  0  0
   38.9060   34.8710   33.1610 O   0  0  0  0  0  0  0  0  0  0  0  0
  1  2  1  0
  1  9  1  0
  1  3  1  0
  2  4  2  0
  4  7  1  0
  7 11  1  0
  8  1  1  0
  8  5  1  0
  8 12  1  0
  9 10  1  0
 10 13  2  0
 11  3  1  0
 12  6  1  0
 12 10  1  0
M  END
$$$$

     RDKit          3D

  8  7  0  0  0  0  0  0  0  0999 V2000
   43.8750   36.7180   32.3030 C   0  0  0  0  0  0  0  0  0  0  0  0
   44.4490   37.7830   31.4200 C   0  0  0  0  0  0  0  0  0  0  0  0
   42.1540   35.9520   29.7360 O   0  0  0  0  0  0  0  0  0  0  0  0
   43.2490   39.4130   29.8830 N   0  0  0  0  0  0  0  0  0  0  0  0
   43.5530   35.4600   31.7000 C   0  0  0  0  0  0  0  0  0  0  0  0
   43.6640   38.5380   30.6420 C   0  0  0  0  0  0  0  0  0  0  0  0
   41.4950   34.3440   31.2330 N   0  0  0  0  0  0  0  0  0  0  0  0
   42.4220   35.2860   30.7980 C   0  0  0  0  0  0  0  0  0  0  0  0
  2  1  1  0
  3  8  2  0
  4  6  3  0
  5  1  1  0
  6  2  1  0
  8  7  1  0
  8  5  1  0
M  END
$$$$

     RDKit          3D

 24 26  0  0  0  0  0  0  0  0999 V2000
   37.0980   32.1520   34.8770 C   0  0  0  0  0  0  0  0  0  0  0  0
   40.1750   34.1200   33.4690 C   0  0  0  0  0  0  0  0  0  0  0  0
   41.4560   33.8030   30.8890 O   0  0  0  0  0  0  0  0  0  0  0  0
   38.1370   31.3790   35.3920 C   0  0  0  0  0  0  0  0  0  0  0  0
   34.4090   30.2390   36.0210 O   0  0  0  0  0  0  0  0  0  0  0  0
   39.8060   34.3280   34.8800 C   0  0  0  0  0  0  0  0  0  0  0  0
   41.3400   36.1960   34.3910 C   0  0  0  0  0  0  0  0  0  0  0  0
   42.3010   35.2240   32.4900 C   0  0  0  0  0  0  0  0  0  0  0  0
   37.8530   30.0670   35.7030 C   0  0  0  0  0  0  0  0  0  0  0  0
   36.5860   29.7370   36.0240 N   0  0  0  0  0  0  0  0  0  0  0  0
   35.5830   30.6440   35.8940 C   0  0  0  0  0  0  0  0  0  0  0  0
   38.6150   33.7670   33.1800 C   0  0  0  0  0  0  0  0  0  0  0  0
   42.7420   35.8600   37.3910 C   0  0  0  0  0  0  0  0  0  0  0  0
   40.9840   35.3570   33.1150 N   0  0  0  0  0  0  0  0  0  0  0  0
   37.3680   33.1060   33.7350 C   0  0  0  0  0  0  0  0  0  0  0  0
   43.6180   34.3310   30.6910 O   0  0  0  0  0  0  0  0  0  0  0  0
   40.8060   35.5910   35.5550 C   0  0  0  0  0  0  0  0  0  0  0  0
   42.6790   36.8760   34.1930 C   0  0  0  0  0  0  0  0  0  0  0  0
   39.3010   33.8950   35.8110 O   0  0  0  0  0  0  0  0  0  0  0  0
   35.8310   31.7930   35.2110 C   0  0  0  0  0  0  0  0  0  0  0  0
   41.2730   36.3130   36.8610 C   0  0  0  0  0  0  0  0  0  0  0  0
   42.5230   34.3390   31.3130 C   0  0  0  0  0  0  0  0  0  0  0  0
   43.0880   36.5130   32.7600 C   0  0  0  0  0  0  0  0  0  0  0  0
   36.1440   33.7280   33.1950 N   0  0  0  0  0  0  0  0  0  0  0  0
  1 15  1  0
  1 20  1  0
  1  4  1  0
  2 12  1  0
  2  6  1  0
  3 22  1  0
  4  9  1  0
  6 17  1  0
  6 19  2  0
  7 18  1  0
  7 17  1  0
  8 22  1  0
  8 23  1  0
  8 14  1  0
  9 10  2  0
 11  5  2  0
 11 10  1  0
 12 15  1  0
 14  2  1  0
 14  7  1  0
 16 22  2  0
 17 21  1  0
 20 11  1  0
 21 13  1  0
 23 18  1  0
 24 15  1  0
M  END
$$$$

     RDKit          3D

 28 30  0  0  0  0  0  0  0  0999 V2000
   37.4080   29.4600   36.0390 C   0  0  0  0  0  0  0  0  0  0  0  0
   36.6960   31.0850   34.4460 N   0  0  0  0  0  0  0  0  0  0  0  0
   36.7560   33.3530   33.5260 C   0  0  0  0  0  0  0  0  0  0  0  0
   37.9240   33.6650   34.1770 C   0  0  0  0  0  0  0  0  0  0  0  0
   40.8410   35.5570   34.0040 C   0  0  0  0  0  0  0  0  0  0  0  0
   36.8650   35.2920   32.1540 C   0  0  0  0  0  0  0  0  0  0  0  0
   40.5300   38.7240   31.2330 O   0  0  0  0  0  0  0  0  0  0  0  0
   45.4710   38.2670   31.5110 C   0  0  0  0  0  0  0  0  0  0  0  0
   41.5740   37.0630   32.6740 C   0  0  0  0  0  0  0  0  0  0  0  0
   36.7260   26.3380   35.0530 C   0  0  0  0  0  0  0  0  0  0  0  0
   42.7110   36.5000   33.4060 C   0  0  0  0  0  0  0  0  0  0  0  0
   43.0210   38.4750   31.3500 N   0  0  0  0  0  0  0  0  0  0  0  0
   37.0180   28.5560   35.0330 O   0  0  0  0  0  0  0  0  0  0  0  0
   39.9980   34.7370   34.6080 N   0  0  0  0  0  0  0  0  0  0  0  0
   35.9830   32.1700   33.9760 C   0  0  0  0  0  0  0  0  0  0  0  0
   37.5720   30.8360   35.4520 C   0  0  0  0  0  0  0  0  0  0  0  0
   43.3180   39.3330   30.2570 C   0  0  0  0  0  0  0  0  0  0  0  0
   42.2150   35.6510   34.2180 N   0  0  0  0  0  0  0  0  0  0  0  0
   40.4140   36.4250   33.0420 C   0  0  0  0  0  0  0  0  0  0  0  0
   37.8350   27.3530   34.9070 C   0  0  0  0  0  0  0  0  0  0  0  0
   41.6900   38.1530   31.7290 C   0  0  0  0  0  0  0  0  0  0  0  0
   37.9690   35.7780   32.7950 C   0  0  0  0  0  0  0  0  0  0  0  0
   42.4630   39.9680   29.6080 O   0  0  0  0  0  0  0  0  0  0  0  0
   44.0100   36.8560   32.9240 C   0  0  0  0  0  0  0  0  0  0  0  0
   38.2540   31.7240   36.1570 O   0  0  0  0  0  0  0  0  0  0  0  0
   36.2670   34.0840   32.4480 C   0  0  0  0  0  0  0  0  0  0  0  0
   44.1020   37.8190   31.8850 C   0  0  0  0  0  0  0  0  0  0  0  0
   38.6670   34.8800   33.7910 C   0  0  0  0  0  0  0  0  0  0  0  0
  2 16  1  0
  3 15  1  0
  3  4  1  0
  5 18  2  0
  5 14  1  0
  6 26  1  0
  6 22  2  0
  7 21  2  0
  9 19  2  0
  9 11  1  0
 11 18  1  0
 12 21  1  0
 12 27  1  0
 13  1  1  0
 15  2  1  0
 16  1  1  0
 16 25  2  0
 17 12  1  0
 19  5  1  0
 20 13  1  0
 20 10  1  0
 21  9  1  0
 22 28  1  0
 23 17  2  0
 24 11  2  0
 26  3  2  0
 27  8  1  0
 27 24  1  0
 28  4  2  0
 28 14  1  0
M  END
$$$$

     RDKit          3D

 21 20  0  0  0  0  0  0  0  0999 V2000
   41.1200   37.9060   31.0140 N   0  0  0  0  0  0  0  0  0  0  0  0
   33.7380   35.9650   33.4630 C   0  0  0  0  0  0  0  0  0  0  0  0
   34.9380   35.5640   32.6060 C   0  0  0  0  0  0  0  0  0  0  0  0
   41.2680   38.8950   29.9900 C   0  0  0  0  0  0  0  0  0  0  0  0
   42.1720   35.9460   30.9470 C   0  0  0  0  0  0  0  0  0  0  0  0
   40.4290   34.8480   32.2800 C   0  0  0  0  0  0  0  0  0  0  0  0
   36.0730   35.9350   33.0600 C   0  0  0  0  0  0  0  0  0  0  0  0
   37.6930   34.2460   32.6980 C   0  0  0  0  0  0  0  0  0  0  0  0
   37.2370   35.5340   32.7630 O   0  0  0  0  0  0  0  0  0  0  0  0
   38.7930   33.8490   33.1780 O   0  0  0  0  0  0  0  0  0  0  0  0
   42.4370   33.8470   31.9800 O   0  0  0  0  0  0  0  0  0  0  0  0
   39.9470   33.6470   32.6240 N   0  0  0  0  0  0  0  0  0  0  0  0
   40.1860   32.1780   32.5320 C   0  0  0  0  0  0  0  0  0  0  0  0
   33.2690   34.7870   34.2860 C   0  0  0  0  0  0  0  0  0  0  0  0
   42.7250   39.2860   29.8680 C   0  0  0  0  0  0  0  0  0  0  0  0
   41.6390   40.6210   28.1740 C   0  0  0  0  0  0  0  0  0  0  0  0
   42.2890   37.2880   31.6510 C   0  0  0  0  0  0  0  0  0  0  0  0
   43.4770   41.4580   28.9710 C   0  0  0  0  0  0  0  0  0  0  0  0
   41.6990   34.8850   31.8690 C   0  0  0  0  0  0  0  0  0  0  0  0
   39.6380   35.7850   32.3330 O   0  0  0  0  0  0  0  0  0  0  0  0
   43.0460   40.0910   28.6810 N   0  0  0  0  0  0  0  0  0  0  0  0
  1 17  1  0
  2 14  1  0
  3  7  1  0
  3  2  1  0
  4  1  1  0
  5 17  1  0
  5 19  1  0
  6 20  2  0
  6 12  1  0
  8  9  1  0
  8 10  1  0
  9  7  1  0
 12 10  1  0
 13 12  1  0
 15  4  1  0
 16 21  1  0
 19 11  2  0
 19  6  1  0
 21 18  1  0
 21 15  1  0
M  END
$$$$

     RDKit          3D

  5  5  0  0  0  0  0  0  0  0999 V2000
   44.0690   36.6350   33.1210 C   0  0  0  0  0  0  0  0  0  0  0  0
   43.7290   36.3980   30.5880 C   0  0  0  0  0  0  0  0  0  0  0  0
   43.7910   36.0710   29.4260 N   0  0  0  0  0  0  0  0  0  0  0  0
   44.0910   36.2050   31.6750 C   0  0  0  0  0  0  0  0  0  0  0  0
   44.1130   37.6390   32.1240 C   0  0  0  0  0  0  0  0  0  0  0  0
  2  4  1  0
  3  2  2  0
  4  5  1  0
  4  1  1  0
  5  1  1  0
M  END
$$$$

     RDKit          3D

 11 10  0  0  0  0  0  0  0  0999 V2000
   44.1030   38.4260   32.8930 C   0  0  0  0  0  0  0  0  0  0  0  0
   43.1440   37.3700   33.1180 O   0  0  0  0  0  0  0  0  0  0  0  0
   42.4170   36.9900   32.0130 C   0  0  0  0  0  0  0  0  0  0  0  0
   44.8720   40.2690   31.6270 C   0  0  0  0  0  0  0  0  0  0  0  0
   43.8780   39.7040   32.6120 C   0  0  0  0  0  0  0  0  0  0  0  0
   44.5060   36.2720   31.7250 O   0  0  0  0  0  0  0  0  0  0  0  0
   43.2350   36.1650   31.1760 C   0  0  0  0  0  0  0  0  0  0  0  0
   42.7290   40.0210   32.6170 O   0  0  0  0  0  0  0  0  0  0  0  0
   41.3110   37.5190   31.7660 O   0  0  0  0  0  0  0  0  0  0  0  0
   42.7740   34.7910   30.9370 C   0  0  0  0  0  0  0  0  0  0  0  0
   44.9900   38.1810   34.1320 N   0  0  0  0  0  0  0  0  0  0  0  0
  1  2  1  0
  1 11  1  0
  3  2  1  0
  4  5  1  0
  5  8  2  0
  5  1  1  0
  7 10  1  0
  7  6  1  0
  7  3  1  0
  9  3  2  0
M  END
$$$$
