
     RDKit          3D

 14 15  0  0  0  0  0  0  0  0999 V2000
   37.5960   38.1980   32.1410 N   0  0  0  0  0  0  0  0  0  0  0  0
   35.2180   35.2270   33.0200 C   0  0  0  0  0  0  0  0  0  0  0  0
   40.9000   36.6430   31.3640 C   0  0  0  0  0  0  0  0  0  0  0  0
   41.0350   38.9130   30.5530 C   0  0  0  0  0  0  0  0  0  0  0  0
   41.7230   37.8710   30.9450 C   0  0  0  0  0  0  0  0  0  0  0  0
   36.5340   37.4570   32.4220 N   0  0  0  0  0  0  0  0  0  0  0  0
   41.6390   40.3430   30.5460 C   0  0  0  0  0  0  0  0  0  0  0  0
   37.7320   35.1870   32.4590 C   0  0  0  0  0  0  0  0  0  0  0  0
   37.5730   36.6840   32.5690 C   0  0  0  0  0  0  0  0  0  0  0  0
   39.7800   39.0940   31.0440 C   0  0  0  0  0  0  0  0  0  0  0  0
   38.6540   37.3740   31.6690 C   0  0  0  0  0  0  0  0  0  0  0  0
   36.5450   34.4900   33.1210 C   0  0  0  0  0  0  0  0  0  0  0  0
   41.3420   35.6390   31.3930 O   0  0  0  0  0  0  0  0  0  0  0  0
   39.9250   37.1040   32.1420 N   0  0  0  0  0  0  0  0  0  0  0  0
  1  6  1  0
  1  9  1  0
  2 12  1  0
  3 13  2  0
  3 14  1  0
  4  5  1  0
  4 10  1  0
  5  3  1  0
  6  9  1  0
  7  4  1  0
  8 12  1  0
  9  8  1  0
 11  1  1  0
 11 14  1  0
 11  9  1  0
M  END
$$$$

     RDKit          3D

 26 27  0  0  0  0  0  0  0  0999 V2000
   35.8100   34.8790   39.4210 C   0  0  0  0  0  0  0  0  0  0  0  0
   36.2710   33.3220   34.8270 C   0  0  0  0  0  0  0  0  0  0  0  0
   41.1860   38.2590   27.3880 O   0  0  0  0  0  0  0  0  0  0  0  0
   38.0080   38.6320   32.5300 C   0  0  0  0  0  0  0  0  0  0  0  0
   35.1140   34.7260   33.0940 C   0  0  0  0  0  0  0  0  0  0  0  0
   35.4660   33.3020   33.5720 C   0  0  0  0  0  0  0  0  0  0  0  0
   40.0430   38.9890   30.7170 N   0  0  0  0  0  0  0  0  0  0  0  0
   39.4040   37.6800   30.6470 C   0  0  0  0  0  0  0  0  0  0  0  0
   38.4570   37.4530   31.6900 C   0  0  0  0  0  0  0  0  0  0  0  0
   37.5650   34.8120   37.5420 C   0  0  0  0  0  0  0  0  0  0  0  0
   35.9960   34.4860   40.5220 O   0  0  0  0  0  0  0  0  0  0  0  0
   37.2810   35.4020   33.9930 C   0  0  0  0  0  0  0  0  0  0  0  0
   37.2140   35.0080   38.5870 C   0  0  0  0  0  0  0  0  0  0  0  0
   38.4320   36.2070   33.9550 N   0  0  0  0  0  0  0  0  0  0  0  0
   36.2990   35.5190   32.9310 C   0  0  0  0  0  0  0  0  0  0  0  0
   37.6920   34.4600   36.2870 O   0  0  0  0  0  0  0  0  0  0  0  0
   43.7590   39.1170   27.8280 O   0  0  0  0  0  0  0  0  0  0  0  0
   37.1150   34.4010   35.0220 C   0  0  0  0  0  0  0  0  0  0  0  0
   41.0390   40.8220   29.8230 C   0  0  0  0  0  0  0  0  0  0  0  0
   42.6600   39.8180   28.5110 C   0  0  0  0  0  0  0  0  0  0  0  0
   41.4580   38.9870   28.4640 C   0  0  0  0  0  0  0  0  0  0  0  0
   42.5420   40.5850   29.7920 C   0  0  0  0  0  0  0  0  0  0  0  0
   34.4530   35.3070   39.3460 O   0  0  0  0  0  0  0  0  0  0  0  0
   40.3290   41.8030   29.3090 O   0  0  0  0  0  0  0  0  0  0  0  0
   38.9830   36.3620   32.6190 C   0  0  0  0  0  0  0  0  0  0  0  0
   40.4020   39.5020   29.4210 C   0  0  0  0  0  0  0  0  0  0  0  0
  1 11  1  0
  2 18  2  0
  5  6  1  0
  6  2  1  0
  8  7  1  0
  8  9  1  0
  9  4  1  0
  9 25  1  0
 10 13  1  0
 12 18  1  0
 13  1  1  0
 14 12  1  0
 15  5  1  0
 15 12  2  0
 16 10  1  0
 18 16  1  0
 19 24  1  0
 20 17  1  0
 20 22  1  0
 21  3  1  0
 21 20  1  0
 21 26  1  0
 22 19  1  0
 23  1  2  0
 25 14  1  0
 26 19  1  0
 26  7  1  0
M  END
$$$$

     RDKit          3D

 12 12  0  0  0  0  0  0  0  0999 V2000
   39.0560   39.5650   29.9300 N   0  0  0  0  0  0  0  0  0  0  0  0
   41.9800   39.9750   31.6040 C   0  0  0  0  0  0  0  0  0  0  0  0
   39.1110   41.0180   29.7630 C   0  0  0  0  0  0  0  0  0  0  0  0
   39.5960   39.2090   28.7220 N   0  0  0  0  0  0  0  0  0  0  0  0
   40.6540   37.4110   29.4450 O   0  0  0  0  0  0  0  0  0  0  0  0
   40.1110   41.5010   30.8600 C   0  0  0  0  0  0  0  0  0  0  0  0
   43.1560   40.9850   31.4170 C   0  0  0  0  0  0  0  0  0  0  0  0
   40.3300   38.1680   28.6040 C   0  0  0  0  0  0  0  0  0  0  0  0
   38.2840   41.8060   28.7780 C   0  0  0  0  0  0  0  0  0  0  0  0
   39.6730   39.0390   31.2050 C   0  0  0  0  0  0  0  0  0  0  0  0
   40.8240   37.8010   27.2200 N   0  0  0  0  0  0  0  0  0  0  0  0
   40.4810   40.2500   31.7420 C   0  0  0  0  0  0  0  0  0  0  0  0
  1 10  1  0
  3  9  1  0
  3  1  1  0
  3  6  1  0
  4  1  1  0
  6 12  1  0
  7  2  1  0
  8  4  1  0
  8  5  2  0
 10 12  1  0
 11  8  1  0
 12  2  1  0
M  END
$$$$

     RDKit          3D

 25 25  0  0  0  0  0  0  0  0999 V2000
   33.1260   33.6620   34.3940 C   0  0  0  0  0  0  0  0  0  0  0  0
   40.9620   38.7320   31.0130 C   0  0  0  0  0  0  0  0  0  0  0  0
   40.1290   36.4930   31.5130 C   0  0  0  0  0  0  0  0  0  0  0  0
   38.2300   34.3410   34.3380 C   0  0  0  0  0  0  0  0  0  0  0  0
   39.9980   41.5410   29.0900 C   0  0  0  0  0  0  0  0  0  0  0  0
   37.6240   31.5790   34.1430 C   0  0  0  0  0  0  0  0  0  0  0  0
   33.1060   34.7220   35.4920 C   0  0  0  0  0  0  0  0  0  0  0  0
   42.2490   39.5700   31.1350 C   0  0  0  0  0  0  0  0  0  0  0  0
   34.3420   34.1130   33.6310 C   0  0  0  0  0  0  0  0  0  0  0  0
   38.0950   40.4660   30.2370 C   0  0  0  0  0  0  0  0  0  0  0  0
   35.5990   33.8690   34.4730 C   0  0  0  0  0  0  0  0  0  0  0  0
   38.4510   32.6590   34.3880 N   0  0  0  0  0  0  0  0  0  0  0  0
   39.4530   35.3810   32.3360 C   0  0  0  0  0  0  0  0  0  0  0  0
   39.0040   35.4300   33.5690 C   0  0  0  0  0  0  0  0  0  0  0  0
   42.7780   40.4140   30.0320 C   0  0  0  0  0  0  0  0  0  0  0  0
   39.8910   39.7860   30.9650 C   0  0  0  0  0  0  0  0  0  0  0  0
   43.3840   38.6190   31.4470 C   0  0  0  0  0  0  0  0  0  0  0  0
   34.1400   34.2090   36.5230 C   0  0  0  0  0  0  0  0  0  0  0  0
   40.4980   36.1040   30.4450 O   0  0  0  0  0  0  0  0  0  0  0  0
   35.4090   33.6530   35.8960 C   0  0  0  0  0  0  0  0  0  0  0  0
   40.4370   37.6920   31.9290 N   0  0  0  0  0  0  0  0  0  0  0  0
   39.4160   40.2410   29.6540 C   0  0  0  0  0  0  0  0  0  0  0  0
   36.7950   34.5220   33.8570 C   0  0  0  0  0  0  0  0  0  0  0  0
   39.3580   39.2180   28.5890 C   0  0  0  0  0  0  0  0  0  0  0  0
   41.9520   40.6450   32.1950 C   0  0  0  0  0  0  0  0  0  0  0  0
  1  7  1  0
  2 16  1  0
  2  8  1  0
  2 21  1  0
  3 21  1  0
  3 13  1  0
  4 14  1  0
  4 12  1  0
  5 22  1  0
  6 12  1  0
  7 18  1  0
  8 17  1  0
  8 25  1  0
  9  1  1  0
  9 11  1  0
 11 20  1  0
 13 14  2  3
 15  8  1  0
 19  3  2  0
 20 18  1  0
 22 10  1  0
 22 16  1  0
 23  4  1  0
 23 11  1  0
 24 22  1  0
M  END
$$$$

     RDKit          3D

 15 14  0  0  0  0  0  0  0  0999 V2000
   43.3950   39.2370   29.4460 O   0  0  0  0  0  0  0  0  0  0  0  0
   40.1470   38.0530   29.5440 O   0  0  0  0  0  0  0  0  0  0  0  0
   39.9260   42.4450   30.8340 C   0  0  0  0  0  0  0  0  0  0  0  0
   40.3930   41.2010   28.2370 C   0  0  0  0  0  0  0  0  0  0  0  0
   43.5610   37.7120   31.1670 O   0  0  0  0  0  0  0  0  0  0  0  0
   42.9280   38.5410   30.2940 C   0  0  0  0  0  0  0  0  0  0  0  0
   39.6160   41.4180   29.4520 C   0  0  0  0  0  0  0  0  0  0  0  0
   41.1310   40.1410   31.1140 C   0  0  0  0  0  0  0  0  0  0  0  0
   38.2800   41.7890   28.7590 C   0  0  0  0  0  0  0  0  0  0  0  0
   39.2980   33.3280   31.2120 S   0  0  0  0  0  0  0  0  0  0  0  0
   40.1150   36.1890   30.9610 C   0  0  0  0  0  0  0  0  0  0  0  0
   40.1270   40.3250   30.2720 N   0  0  0  0  0  0  0  0  0  0  0  0
   40.6420   37.7420   30.8660 C   0  0  0  0  0  0  0  0  0  0  0  0
   41.6900   38.8550   31.2890 C   0  0  0  0  0  0  0  0  0  0  0  0
   39.9340   34.7340   30.3880 C   0  0  0  0  0  0  0  0  0  0  0  0
  1  6  2  0
  4  7  1  0
  6  5  1  0
  6 14  1  0
  7 12  1  0
  7  3  1  0
  9  7  1  0
 12  8  1  0
 13  2  1  0
 13 11  1  0
 13 14  1  0
 14  8  1  0
 15 11  2  3
 15 10  1  0
M  END
$$$$

     RDKit          3D

  7  7  0  0  0  0  0  0  0  0999 V2000
   40.1590   36.7480   30.5030 O   0  0  0  0  0  0  0  0  0  0  0  0
   38.8880   40.3960   29.0300 O   0  0  0  0  0  0  0  0  0  0  0  0
   39.7060   39.9320   30.1290 C   0  0  0  0  0  0  0  0  0  0  0  0
   40.0680   38.1630   30.0170 S   0  0  0  0  0  0  0  0  0  0  0  0
   41.1830   40.1860   29.9060 C   0  0  0  0  0  0  0  0  0  0  0  0
   38.7190   37.9870   29.6290 O   0  0  0  0  0  0  0  0  0  0  0  0
   41.5670   38.7050   29.6240 C   0  0  0  0  0  0  0  0  0  0  0  0
  3  2  1  0
  4  3  1  0
  4  1  2  0
  5  3  1  0
  6  4  2  0
  7  5  1  0
  7  4  1  0
M  END
$$$$

     RDKit          3D

  5  4  0  0  0  0  0  0  0  0999 V2000
   41.6250   37.8900   28.6440 C   0  0  0  0  0  0  0  0  0  0  0  0
   41.3520   38.3190   29.9940 C   0  0  0  0  0  0  0  0  0  0  0  0
   40.2080   39.2160   30.2700 C   0  0  0  0  0  0  0  0  0  0  0  0
   42.3530   38.5960   30.7610 O   0  0  0  0  0  0  0  0  0  0  0  0
   39.4070   38.4120   29.4490 O   0  0  0  0  0  0  0  0  0  0  0  0
  2  1  1  0
  2  3  1  0
  2  4  1  0
  5  3  1  0
M  END
$$$$

     RDKit          3D

 11 11  0  0  0  0  0  0  0  0999 V2000
   39.0810   35.7520   31.3190 Cl  0  0  0  0  0  0  0  0  0  0  0  0
   39.5970   40.1450   32.1260 O   0  0  0  0  0  0  0  0  0  0  0  0
   41.5070   41.4370   31.9340 C   0  0  0  0  0  0  0  0  0  0  0  0
   37.1040   37.9050   31.4310 F   0  0  0  0  0  0  0  0  0  0  0  0
   38.7020   39.4950   31.5720 C   0  0  0  0  0  0  0  0  0  0  0  0
   42.8260   38.9210   30.5430 S   0  0  0  0  0  0  0  0  0  0  0  0
   40.8350   37.6490   31.3840 C   0  0  0  0  0  0  0  0  0  0  0  0
   41.4680   38.8810   31.2770 C   0  0  0  0  0  0  0  0  0  0  0  0
   41.0950   40.0110   32.2100 C   0  0  0  0  0  0  0  0  0  0  0  0
   38.4020   38.1780   31.6110 C   0  0  0  0  0  0  0  0  0  0  0  0
   39.4380   37.3390   31.5650 C   0  0  0  0  0  0  0  0  0  0  0  0
  1 11  1  0
  2  9  1  0
  4 10  1  0
  5 10  1  0
  5  2  1  0
  6  8  2  0
  7 11  1  0
  8  7  1  0
  8  9  1  0
  9  3  1  0
 11 10  2  0
M  END
$$$$

     RDKit          3D

 14 14  0  0  0  0  0  0  0  0999 V2000
   34.7350   36.9710   33.1880 N   0  0  0  0  0  0  0  0  0  0  0  0
   38.2780   34.7870   33.3300 C   0  0  0  0  0  0  0  0  0  0  0  0
   39.4650   35.3490   33.4620 C   0  0  0  0  0  0  0  0  0  0  0  0
   35.7460   33.8520   33.3190 C   0  0  0  0  0  0  0  0  0  0  0  0
   37.1280   35.5470   33.5100 C   0  0  0  0  0  0  0  0  0  0  0  0
   36.9030   32.8620   33.0840 C   0  0  0  0  0  0  0  0  0  0  0  0
   39.8810   35.2710   31.0920 C   0  0  0  0  0  0  0  0  0  0  0  0
   40.8990   38.1510   32.8350 C   0  0  0  0  0  0  0  0  0  0  0  0
   41.1480   36.8010   32.3960 C   0  0  0  0  0  0  0  0  0  0  0  0
   39.9750   35.1100   34.5140 O   0  0  0  0  0  0  0  0  0  0  0  0
   40.0440   35.8340   32.4370 N   0  0  0  0  0  0  0  0  0  0  0  0
   34.6590   35.6930   33.5140 C   0  0  0  0  0  0  0  0  0  0  0  0
   35.9260   35.0500   33.4300 C   0  0  0  0  0  0  0  0  0  0  0  0
   38.1440   33.4100   33.1280 C   0  0  0  0  0  0  0  0  0  0  0  0
  1 12  1  0
  2  3  1  0
  2  5  1  0
  3 10  2  0
  4 13  1  0
  6 14  1  0
  6  4  2  0
  7 11  1  0
  9 11  1  0
  9  8  1  0
 11  3  1  0
 13  5  2  0
 13 12  1  0
 14  2  2  0
M  END
$$$$

     RDKit          3D

 26 28  0  0  0  0  0  0  0  0999 V2000
   36.1420   31.8710   28.6960 C   0  0  0  0  0  0  0  0  0  0  0  0
   37.5960   36.0700   32.0810 C   0  0  0  0  0  0  0  0  0  0  0  0
   35.5660   35.2340   31.0820 N   0  0  0  0  0  0  0  0  0  0  0  0
   30.3570   39.0120   29.5430 O   0  0  0  0  0  0  0  0  0  0  0  0
   36.1050   34.0460   30.6350 C   0  0  0  0  0  0  0  0  0  0  0  0
   35.8910   30.4360   28.2220 C   0  0  0  0  0  0  0  0  0  0  0  0
   34.3600   35.5620   30.6970 N   0  0  0  0  0  0  0  0  0  0  0  0
   30.9240   37.6850   29.4460 C   0  0  0  0  0  0  0  0  0  0  0  0
   35.8820   28.5160   25.3160 C   0  0  0  0  0  0  0  0  0  0  0  0
   30.9230   37.3720   28.1120 O   0  0  0  0  0  0  0  0  0  0  0  0
   34.1080   36.8160   31.0860 C   0  0  0  0  0  0  0  0  0  0  0  0
   38.1440   34.7970   31.7500 C   0  0  0  0  0  0  0  0  0  0  0  0
   37.9500   32.6480   30.5880 C   0  0  0  0  0  0  0  0  0  0  0  0
   30.5330   36.8360   28.2480 C   0  0  0  0  0  0  0  0  0  0  0  0
   36.7280   30.8750   25.3020 C   0  0  0  0  0  0  0  0  0  0  0  0
   34.9880   30.1170   27.1330 N   0  0  0  0  0  0  0  0  0  0  0  0
   33.7100   30.8560   26.8490 C   0  0  0  0  0  0  0  0  0  0  0  0
   37.3120   31.9870   29.6140 C   0  0  0  0  0  0  0  0  0  0  0  0
   35.8270   29.8590   25.9890 C   0  0  0  0  0  0  0  0  0  0  0  0
   35.1930   37.4230   32.1850 S   0  0  0  0  0  0  0  0  0  0  0  0
   32.2870   37.6620   29.8920 O   0  0  0  0  0  0  0  0  0  0  0  0
   37.4130   33.8540   31.0330 C   0  0  0  0  0  0  0  0  0  0  0  0
   32.6240   36.9570   31.1050 C   0  0  0  0  0  0  0  0  0  0  0  0
   36.2340   36.1900   31.7720 C   0  0  0  0  0  0  0  0  0  0  0  0
   35.3110   33.5090   29.6930 C   0  0  0  0  0  0  0  0  0  0  0  0
   35.2360   32.8010   28.5730 N   0  0  0  0  0  0  0  0  0  0  0  0
  1  6  1  0
  1 18  1  0
  3 24  1  0
  5 25  1  0
  5 22  1  0
  5  3  1  0
  7  3  1  0
  7 11  1  0
  8  4  1  0
  8 21  1  0
  9 19  1  0
 10 14  1  0
 10  8  1  0
 11 23  1  0
 11 20  1  0
 12  2  1  0
 13 22  1  0
 15 19  1  0
 16  6  1  0
 17 16  1  0
 18 13  2  0
 19 16  1  0
 21 23  1  0
 22 12  2  0
 24  2  2  0
 24 20  1  0
 26  1  1  0
 26 25  1  0
M  END
$$$$

     RDKit          3D

 11 10  0  0  0  0  0  0  0  0999 V2000
   35.8910   38.4790   27.4160 N   0  0  0  0  0  0  0  0  0  0  0  0
   36.3000   36.2960   30.4620 C   0  0  0  0  0  0  0  0  0  0  0  0
   35.3300   37.8610   28.6140 C   0  0  0  0  0  0  0  0  0  0  0  0
   37.8030   36.8630   32.2000 C   0  0  0  0  0  0  0  0  0  0  0  0
   38.1810   34.6250   30.4990 C   0  0  0  0  0  0  0  0  0  0  0  0
   37.3630   37.9270   32.5050 C   0  0  0  0  0  0  0  0  0  0  0  0
   36.2940   36.7980   29.0600 N   0  0  0  0  0  0  0  0  0  0  0  0
   39.3380   34.2170   31.2110 C   0  0  0  0  0  0  0  0  0  0  0  0
   36.4560   38.3720   31.6710 C   0  0  0  0  0  0  0  0  0  0  0  0
   36.7580   34.9450   30.9170 C   0  0  0  0  0  0  0  0  0  0  0  0
   35.5630   37.2070   31.2000 C   0  0  0  0  0  0  0  0  0  0  0  0
  1  3  1  0
  2 10  1  0
  2 11  1  0
  3  7  1  0
  4  6  1  0
  5 10  1  0
  5  8  1  0
  7  2  1  0
  9  6  1  0
 11  9  1  0
M  END
$$$$

     RDKit          3D

 25 27  0  0  0  0  0  0  0  0999 V2000
   42.0050   38.1040   28.6880 O   0  0  0  0  0  0  0  0  0  0  0  0
   40.1740   38.1200   31.7610 C   0  0  0  0  0  0  0  0  0  0  0  0
   41.3310   37.8650   30.8520 C   0  0  0  0  0  0  0  0  0  0  0  0
   40.1250   36.9220   32.6820 C   0  0  0  0  0  0  0  0  0  0  0  0
   34.9080   35.0680   34.0290 N   0  0  0  0  0  0  0  0  0  0  0  0
   34.0420   32.4180   33.7730 C   0  0  0  0  0  0  0  0  0  0  0  0
   39.1690   39.1920   31.4970 C   0  0  0  0  0  0  0  0  0  0  0  0
   40.6740   39.8760   29.5340 C   0  0  0  0  0  0  0  0  0  0  0  0
   35.2340   32.8630   33.3040 C   0  0  0  0  0  0  0  0  0  0  0  0
   37.8670   36.4450   32.1180 C   0  0  0  0  0  0  0  0  0  0  0  0
   41.8790   41.7780   29.5370 O   0  0  0  0  0  0  0  0  0  0  0  0
   37.3660   37.5020   31.5130 O   0  0  0  0  0  0  0  0  0  0  0  0
   36.8760   34.5330   32.9340 N   0  0  0  0  0  0  0  0  0  0  0  0
   41.4630   40.8150   28.8080 N   0  0  0  0  0  0  0  0  0  0  0  0
   39.8210   40.3170   30.6630 C   0  0  0  0  0  0  0  0  0  0  0  0
   39.1010   36.0370   32.3530 C   0  0  0  0  0  0  0  0  0  0  0  0
   35.6480   34.1900   33.3930 C   0  0  0  0  0  0  0  0  0  0  0  0
   33.7080   34.6920   34.3960 C   0  0  0  0  0  0  0  0  0  0  0  0
   39.2420   34.7670   32.5810 C   0  0  0  0  0  0  0  0  0  0  0  0
   33.1660   33.4430   34.2920 C   0  0  0  0  0  0  0  0  0  0  0  0
   42.2340   40.5590   27.8920 O   0  0  0  0  0  0  0  0  0  0  0  0
   41.2500   38.6100   29.5990 C   0  0  0  0  0  0  0  0  0  0  0  0
   41.6900   36.4920   30.7810 O   0  0  0  0  0  0  0  0  0  0  0  0
   38.1320   33.9080   32.6570 C   0  0  0  0  0  0  0  0  0  0  0  0
   37.0360   35.5620   32.5610 C   0  0  0  0  0  0  0  0  0  0  0  0
  2  4  1  0
  3 23  1  0
  3  2  1  0
  5 18  1  0
  6 20  1  0
  7  2  1  0
  8 14  1  0
  8 22  1  0
  8 15  1  0
  9 17  1  0
  9  6  2  0
 10 16  1  0
 10 25  2  0
 12 10  1  0
 13 17  1  0
 14 11  2  0
 15  7  1  0
 16 19  2  0
 16  4  1  0
 17  5  2  0
 19 24  1  0
 20 18  2  0
 21 14  2  0
 22  1  1  0
 22  3  1  0
 24 13  1  0
 25 13  1  0
M  END
$$$$

     RDKit          3D

 29 29  0  0  0  0  0  0  0  0999 V2000
   41.6580   40.9710   37.9610 C   0  0  0  0  0  0  0  0  0  0  0  0
   43.3990   40.1160   33.0370 C   0  0  0  0  0  0  0  0  0  0  0  0
   40.3650   38.1070   38.7560 C   0  0  0  0  0  0  0  0  0  0  0  0
   33.2460   34.5070   30.2510 C   0  0  0  0  0  0  0  0  0  0  0  0
   38.8340   37.9650   31.9840 C   0  0  0  0  0  0  0  0  0  0  0  0
   38.2420   36.8460   31.1560 C   0  0  0  0  0  0  0  0  0  0  0  0
   43.1580   39.0430   38.0720 C   0  0  0  0  0  0  0  0  0  0  0  0
   30.8870   33.0700   32.6820 O   0  0  0  0  0  0  0  0  0  0  0  0
   32.9640   34.7600   32.7350 C   0  0  0  0  0  0  0  0  0  0  0  0
   41.5810   39.0300   36.0930 C   0  0  0  0  0  0  0  0  0  0  0  0
   31.3330   33.4700   31.4440 C   0  0  0  0  0  0  0  0  0  0  0  0
   40.0250   39.2400   30.0870 O   0  0  0  0  0  0  0  0  0  0  0  0
   41.6770   38.8850   31.9130 N   0  0  0  0  0  0  0  0  0  0  0  0
   37.6090   35.7840   31.9360 C   0  0  0  0  0  0  0  0  0  0  0  0
   36.8710   34.8700   31.1030 C   0  0  0  0  0  0  0  0  0  0  0  0
   32.6400   34.0480   29.0270 O   0  0  0  0  0  0  0  0  0  0  0  0
   32.7950   33.8250   31.5430 C   0  0  0  0  0  0  0  0  0  0  0  0
   42.1150   39.5250   37.5650 C   0  0  0  0  0  0  0  0  0  0  0  0
   40.8290   39.4950   38.3350 O   0  0  0  0  0  0  0  0  0  0  0  0
   38.1680   35.4700   33.4480 S   0  0  0  0  0  0  0  0  0  0  0  0
   35.6900   34.3870   33.1080 C   0  0  0  0  0  0  0  0  0  0  0  0
   41.7970   38.8950   34.1650 O   0  0  0  0  0  0  0  0  0  0  0  0
   40.9660   39.7710   34.8760 C   0  0  0  0  0  0  0  0  0  0  0  0
   40.8850   36.8850   30.6740 O   0  0  0  0  0  0  0  0  0  0  0  0
   40.4140   38.2170   31.1740 S   0  0  0  0  0  0  0  0  0  0  0  0
   37.0260   34.2750   33.8320 C   0  0  0  0  0  0  0  0  0  0  0  0
   34.7460   34.3100   30.2090 C   0  0  0  0  0  0  0  0  0  0  0  0
   35.4930   34.4360   31.5710 C   0  0  0  0  0  0  0  0  0  0  0  0
   42.0610   39.4790   32.9880 C   0  0  0  0  0  0  0  0  0  0  0  0
  4 16  1  0
  4 17  1  0
  6  5  1  0
 10 18  1  0
 11 17  1  0
 11  8  1  0
 12 25  2  0
 13 29  1  0
 14  6  1  0
 14 20  1  0
 15 28  1  0
 15 14  1  0
 17  9  1  0
 18  1  1  0
 18  7  1  0
 18 19  1  0
 19  3  1  0
 20 26  1  0
 21 26  1  0
 22 23  1  0
 23 10  1  0
 24 25  2  0
 25 13  1  0
 25  5  1  0
 27  4  1  0
 28 27  1  0
 28 21  1  0
 29  2  1  0
 29 22  1  0
M  END
$$$$

     RDKit          3D

 10  9  0  0  0  0  0  0  0  0999 V2000
   38.0920   32.0030   31.0200 C   0  0  0  0  0  0  0  0  0  0  0  0
   39.2380   32.3270   30.6930 C   0  0  0  0  0  0  0  0  0  0  0  0
   36.1350   34.9230   32.4770 C   0  0  0  0  0  0  0  0  0  0  0  0
   39.6610   33.6630   31.0600 C   0  0  0  0  0  0  0  0  0  0  0  0
   41.1580   33.6750   30.8870 O   0  0  0  0  0  0  0  0  0  0  0  0
   37.1390   33.9830   32.0100 C   0  0  0  0  0  0  0  0  0  0  0  0
   40.7210   34.5980   30.5750 O   0  0  0  0  0  0  0  0  0  0  0  0
   34.9760   34.2700   31.8350 C   0  0  0  0  0  0  0  0  0  0  0  0
   37.1430   32.6320   31.6750 C   0  0  0  0  0  0  0  0  0  0  0  0
   38.5380   34.5320   31.7780 C   0  0  0  0  0  0  0  0  0  0  0  0
  1  9  1  0
  2  1  2  3
  2  4  1  0
  6  3  1  0
  7  5  1  0
  7  4  1  0
  8  3  1  0
  9  6  2  3
 10  6  1  0
M  END
$$$$

     RDKit          3D

 23 24  0  0  0  0  0  0  0  0999 V2000
   35.8240   31.7470   31.7830 C   0  0  0  0  0  0  0  0  0  0  0  0
   44.4030   41.6000   30.9610 C   0  0  0  0  0  0  0  0  0  0  0  0
   35.9230   29.6140   32.9820 O   0  0  0  0  0  0  0  0  0  0  0  0
   38.9760   38.1520   31.9640 C   0  0  0  0  0  0  0  0  0  0  0  0
   36.0770   36.0590   32.7980 C   0  0  0  0  0  0  0  0  0  0  0  0
   36.0870   33.0650   32.8000 N   0  0  0  0  0  0  0  0  0  0  0  0
   37.5290   33.1130   32.9450 C   0  0  0  0  0  0  0  0  0  0  0  0
   39.0730   39.5200   31.7660 C   0  0  0  0  0  0  0  0  0  0  0  0
   37.7720   37.7230   32.4720 O   0  0  0  0  0  0  0  0  0  0  0  0
   38.3020   32.0890   32.0730 C   0  0  0  0  0  0  0  0  0  0  0  0
   41.3290   39.1550   30.9290 C   0  0  0  0  0  0  0  0  0  0  0  0
   35.3520   30.6800   32.7050 C   0  0  0  0  0  0  0  0  0  0  0  0
   43.2330   41.0840   30.3140 C   0  0  0  0  0  0  0  0  0  0  0  0
   39.9780   37.2420   31.5710 C   0  0  0  0  0  0  0  0  0  0  0  0
   42.6180   39.7620   30.7400 C   0  0  0  0  0  0  0  0  0  0  0  0
   43.5820   39.2620   30.7190 O   0  0  0  0  0  0  0  0  0  0  0  0
   40.1810   39.9960   31.0260 C   0  0  0  0  0  0  0  0  0  0  0  0
   34.2390   30.9980   33.3370 O   0  0  0  0  0  0  0  0  0  0  0  0
   41.1690   37.7710   31.0280 C   0  0  0  0  0  0  0  0  0  0  0  0
   42.9830   42.0640   31.3690 C   0  0  0  0  0  0  0  0  0  0  0  0
   35.0780   33.8340   33.5780 C   0  0  0  0  0  0  0  0  0  0  0  0
   37.5690   36.4280   32.9220 C   0  0  0  0  0  0  0  0  0  0  0  0
   35.8100   35.1060   33.8840 C   0  0  0  0  0  0  0  0  0  0  0  0
  1 12  1  0
  1  6  1  0
  2 20  1  0
  4  9  1  0
  5 22  1  0
  5 23  1  0
  6  7  1  0
  6 21  1  0
  8  4  1  0
  9 22  1  0
 10  7  1  0
 11 17  1  0
 11 19  2  0
 12  3  2  0
 12 18  1  0
 13 15  1  0
 13  2  1  0
 13 20  1  0
 14  4  2  0
 15 11  1  0
 16 15  2  0
 17  8  2  0
 19 14  1  0
 21 23  1  0
M  END
$$$$

     RDKit          3D

 22 23  0  0  0  0  0  0  0  0999 V2000
   39.8200   38.7900   31.8830 C   0  0  0  0  0  0  0  0  0  0  0  0
   39.0770   36.5770   31.8880 C   0  0  0  0  0  0  0  0  0  0  0  0
   35.5130   34.2790   32.7470 N   0  0  0  0  0  0  0  0  0  0  0  0
   36.4610   30.8870   33.3700 C   0  0  0  0  0  0  0  0  0  0  0  0
   35.8610   32.0000   32.8140 C   0  0  0  0  0  0  0  0  0  0  0  0
   34.8770   35.4050   32.1160 C   0  0  0  0  0  0  0  0  0  0  0  0
   35.5200   36.6750   32.3830 N   0  0  0  0  0  0  0  0  0  0  0  0
   33.4260   35.5460   32.6900 C   0  0  0  0  0  0  0  0  0  0  0  0
   37.3890   38.0400   32.2070 N   0  0  0  0  0  0  0  0  0  0  0  0
   38.7910   37.9080   32.0080 C   0  0  0  0  0  0  0  0  0  0  0  0
   38.1580   34.7050   31.8860 F   0  0  0  0  0  0  0  0  0  0  0  0
   36.8870   36.7550   32.2390 C   0  0  0  0  0  0  0  0  0  0  0  0
   40.3920   36.0580   31.6550 C   0  0  0  0  0  0  0  0  0  0  0  0
   41.4050   36.9920   31.4500 C   0  0  0  0  0  0  0  0  0  0  0  0
   37.6380   30.1840   32.7210 C   0  0  0  0  0  0  0  0  0  0  0  0
   37.9370   35.9220   32.0110 C   0  0  0  0  0  0  0  0  0  0  0  0
   36.4730   33.3780   32.8770 C   0  0  0  0  0  0  0  0  0  0  0  0
   41.1200   38.3330   31.6400 C   0  0  0  0  0  0  0  0  0  0  0  0
   43.2160   41.4300   31.9820 N   0  0  0  0  0  0  0  0  0  0  0  0
   34.3740   32.0390   32.5670 C   0  0  0  0  0  0  0  0  0  0  0  0
   42.1960   39.3260   31.3600 C   0  0  0  0  0  0  0  0  0  0  0  0
   41.9610   40.7160   31.7450 C   0  0  0  0  0  0  0  0  0  0  0  0
  1 10  1  0
  2 10  2  0
  2 16  1  0
  3 17  1  0
  5 20  1  0
  5 17  1  0
  5  4  1  0
  6  7  1  0
  6  8  1  0
  6  3  1  0
  9 12  2  0
 10  9  1  0
 12  7  1  0
 13  2  1  0
 14 18  1  0
 14 13  2  0
 15  4  1  0
 16 11  1  0
 16 12  1  0
 18  1  2  0
 21 18  1  0
 21 22  1  0
 22 19  1  0
M  END
$$$$

     RDKit          3D

 13 13  0  0  0  0  0  0  0  0999 V2000
   38.3740   40.2310   30.6930 O   0  0  0  0  0  0  0  0  0  0  0  0
   40.2680   41.6060   29.3470 O   0  0  0  0  0  0  0  0  0  0  0  0
   39.6030   32.2480   33.0980 N   0  0  0  0  0  0  0  0  0  0  0  0
   39.3920   34.6490   32.7840 N   0  0  0  0  0  0  0  0  0  0  0  0
   39.1020   35.7650   32.4600 C   0  0  0  0  0  0  0  0  0  0  0  0
   39.7440   36.8810   31.8940 C   0  0  0  0  0  0  0  0  0  0  0  0
   41.0210   36.8190   31.2530 C   0  0  0  0  0  0  0  0  0  0  0  0
   39.3160   39.2380   31.0450 C   0  0  0  0  0  0  0  0  0  0  0  0
   41.4930   37.9980   30.5470 C   0  0  0  0  0  0  0  0  0  0  0  0
   40.5000   39.0800   30.4870 C   0  0  0  0  0  0  0  0  0  0  0  0
   40.9270   40.6130   29.7480 C   0  0  0  0  0  0  0  0  0  0  0  0
   38.8480   38.0450   31.7250 C   0  0  0  0  0  0  0  0  0  0  0  0
   39.4790   33.6140   33.5750 C   0  0  0  0  0  0  0  0  0  0  0  0
  1  8  1  0
  2 11  2  0
  3 13  1  0
  4 13  1  0
  5  4  1  0
  6  5  1  0
  7  6  2  0
  8 12  2  0
  9  7  1  0
 10  9  2  0
 10  8  1  0
 11 10  1  0
 12  6  1  0
M  END
$$$$

     RDKit          3D

  8  7  0  0  0  0  0  0  0  0999 V2000
   42.2340   38.1590   29.7700 O   0  0  0  0  0  0  0  0  0  0  0  0
   40.7170   39.3800   28.7740 C   0  0  0  0  0  0  0  0  0  0  0  0
   40.5600   41.0330   30.7660 C   0  0  0  0  0  0  0  0  0  0  0  0
   41.0600   38.2110   29.4690 C   0  0  0  0  0  0  0  0  0  0  0  0
   39.9170   40.3620   29.5800 C   0  0  0  0  0  0  0  0  0  0  0  0
   41.9210   41.6510   29.9960 N   0  0  0  0  0  0  0  0  0  0  0  0
   39.5860   42.1750   31.0090 C   0  0  0  0  0  0  0  0  0  0  0  0
   40.0800   37.4960   29.8180 O   0  0  0  0  0  0  0  0  0  0  0  0
  2  4  1  0
  2  5  1  0
  3  7  1  0
  4  1  2  0
  4  8  1  0
  5  3  1  0
  6  3  1  0
M  END
$$$$

     RDKit          3D

 10 11  0  0  0  0  0  0  0  0999 V2000
   40.9230   37.1960   30.6240 C   0  0  0  0  0  0  0  0  0  0  0  0
   37.5620   39.8650   29.8330 C   0  0  0  0  0  0  0  0  0  0  0  0
   39.5240   36.8970   30.8390 C   0  0  0  0  0  0  0  0  0  0  0  0
   40.4960   40.7060   28.4810 O   0  0  0  0  0  0  0  0  0  0  0  0
   37.5830   38.5430   30.3790 C   0  0  0  0  0  0  0  0  0  0  0  0
   38.8790   38.1040   30.4950 C   0  0  0  0  0  0  0  0  0  0  0  0
   38.3140   41.6200   28.7240 O   0  0  0  0  0  0  0  0  0  0  0  0
   39.0930   40.3800   29.2750 S   0  0  0  0  0  0  0  0  0  0  0  0
   41.2100   38.5220   30.0860 C   0  0  0  0  0  0  0  0  0  0  0  0
   39.8310   39.0470   30.1320 N   0  0  0  0  0  0  0  0  0  0  0  0
  1  3  1  0
  2  5  1  0
  4  8  2  0
  5  6  1  0
  6  3  2  0
  7  8  2  0
  8  2  1  0
  8 10  1  0
  9 10  1  0
  9  1  2  0
 10  6  1  0
M  END
$$$$

     RDKit          3D

 13 13  0  0  0  0  0  0  0  0999 V2000
   42.4450   37.9070   31.5490 C   0  0  0  0  0  0  0  0  0  0  0  0
   40.1920   35.9260   31.7110 N   0  0  0  0  0  0  0  0  0  0  0  0
   38.9320   37.5800   33.0660 C   0  0  0  0  0  0  0  0  0  0  0  0
   42.7780   36.8310   31.0810 O   0  0  0  0  0  0  0  0  0  0  0  0
   39.0460   38.5600   34.1060 C   0  0  0  0  0  0  0  0  0  0  0  0
   37.5430   36.1300   31.8900 O   0  0  0  0  0  0  0  0  0  0  0  0
   42.7750   39.1420   31.2730 O   0  0  0  0  0  0  0  0  0  0  0  0
   41.3600   37.8650   32.6530 C   0  0  0  0  0  0  0  0  0  0  0  0
   40.3540   39.0670   34.5810 C   0  0  0  0  0  0  0  0  0  0  0  0
   41.4770   38.8130   33.7260 C   0  0  0  0  0  0  0  0  0  0  0  0
   40.2770   37.0440   32.4910 C   0  0  0  0  0  0  0  0  0  0  0  0
   37.6660   37.2170   32.4810 C   0  0  0  0  0  0  0  0  0  0  0  0
   36.6810   37.9510   32.6450 O   0  0  0  0  0  0  0  0  0  0  0  0
  1  8  1  0
  2 11  1  0
  3  5  1  0
  4  1  2  0
  5  9  2  0
  6 12  2  0
  7  1  1  0
  8 10  2  0
 10  9  1  0
 11  8  1  0
 11  3  2  0
 12 13  1  0
 12  3  1  0
M  END
$$$$
