
     RDKit          3D

 11 11  0  0  0  0  0  0  0  0999 V2000
   34.7190   34.7390   33.3370 C   0  0  0  0  0  0  0  0  0  0  0  0
   36.8990   36.4160   32.6500 C   0  0  0  0  0  0  0  0  0  0  0  0
   37.1360   37.9280   32.7390 C   0  0  0  0  0  0  0  0  0  0  0  0
   33.4710   34.8500   33.4690 O   0  0  0  0  0  0  0  0  0  0  0  0
   38.1080   34.2620   32.0910 N   0  0  0  0  0  0  0  0  0  0  0  0
   38.2840   38.7120   32.0880 C   0  0  0  0  0  0  0  0  0  0  0  0
   39.3260   36.2060   32.0410 N   0  0  0  0  0  0  0  0  0  0  0  0
   38.3520   40.2190   32.3340 C   0  0  0  0  0  0  0  0  0  0  0  0
   35.6990   35.5360   32.7510 C   0  0  0  0  0  0  0  0  0  0  0  0
   35.7050   34.0760   33.4090 N   0  0  0  0  0  0  0  0  0  0  0  0
   38.1650   35.6160   32.3040 C   0  0  0  0  0  0  0  0  0  0  0  0
  1 10  1  0
  1  4  2  0
  2  3  1  0
  5 11  1  0
  6  8  1  0
  6  3  2  3
  7 11  2  0
  9  2  1  0
  9  1  1  0
  9 10  1  0
 11  2  1  0
M  END
$$$$

     RDKit          3D

  7  6  0  0  0  0  0  0  0  0999 V2000
   40.4820   36.5050   30.8770 C   0  0  0  0  0  0  0  0  0  0  0  0
   39.3660   38.7740   32.1930 O   0  0  0  0  0  0  0  0  0  0  0  0
   41.2650   37.4830   31.6770 C   0  0  0  0  0  0  0  0  0  0  0  0
   41.0930   35.2760   31.1740 O   0  0  0  0  0  0  0  0  0  0  0  0
   41.2410   39.5440   32.8680 O   0  0  0  0  0  0  0  0  0  0  0  0
   40.5630   38.5940   32.4310 C   0  0  0  0  0  0  0  0  0  0  0  0
   39.1720   36.2380   31.3670 O   0  0  0  0  0  0  0  0  0  0  0  0
  1  4  1  0
  1  7  1  0
  1  3  1  0
  2  6  2  0
  3  6  1  0
  6  5  1  0
M  END
$$$$

     RDKit          3D

 23 25  0  0  0  0  0  0  0  0999 V2000
   41.0590   38.3060   31.6020 C   0  0  0  0  0  0  0  0  0  0  0  0
   41.5790   37.1560   31.2140 O   0  0  0  0  0  0  0  0  0  0  0  0
   38.4640   38.8720   32.7450 C   0  0  0  0  0  0  0  0  0  0  0  0
   40.8860   38.9610   33.0260 C   0  0  0  0  0  0  0  0  0  0  0  0
   37.2530   38.1730   32.4360 N   0  0  0  0  0  0  0  0  0  0  0  0
   34.1150   31.6390   32.2960 C   0  0  0  0  0  0  0  0  0  0  0  0
   41.5340   40.0660   33.6830 O   0  0  0  0  0  0  0  0  0  0  0  0
   35.0980   30.4990   32.5340 C   0  0  0  0  0  0  0  0  0  0  0  0
   37.1270   36.9520   32.9390 C   0  0  0  0  0  0  0  0  0  0  0  0
   34.1670   34.4050   33.4580 N   0  0  0  0  0  0  0  0  0  0  0  0
   36.3400   30.6920   32.0380 C   0  0  0  0  0  0  0  0  0  0  0  0
   35.8990   36.1550   32.8860 C   0  0  0  0  0  0  0  0  0  0  0  0
   35.0850   33.9340   32.6350 C   0  0  0  0  0  0  0  0  0  0  0  0
   40.6420   39.3160   30.6220 C   0  0  0  0  0  0  0  0  0  0  0  0
   36.3570   32.1040   31.6990 N   0  0  0  0  0  0  0  0  0  0  0  0
   33.8970   35.7230   33.7430 C   0  0  0  0  0  0  0  0  0  0  0  0
   38.2030   36.3680   33.7440 C   0  0  0  0  0  0  0  0  0  0  0  0
   41.5110   37.8690   33.6920 N   0  0  0  0  0  0  0  0  0  0  0  0
   39.8150   40.2020   31.5080 O   0  0  0  0  0  0  0  0  0  0  0  0
   34.8240   36.6110   33.5070 N   0  0  0  0  0  0  0  0  0  0  0  0
   35.1350   32.6670   32.2030 C   0  0  0  0  0  0  0  0  0  0  0  0
   35.8790   34.9570   32.1730 C   0  0  0  0  0  0  0  0  0  0  0  0
   39.5110   39.6500   32.7570 C   0  0  0  0  0  0  0  0  0  0  0  0
  1  2  1  0
  1  4  1  0
  4  7  1  0
  4 18  1  0
  5  3  1  0
  5  9  2  3
  6  8  1  0
  9 17  1  0
 10 16  1  0
 11  8  1  0
 12  9  1  0
 12 20  1  0
 13 10  2  0
 14 19  1  0
 14  1  1  0
 15 11  1  0
 15 21  1  0
 19 23  1  0
 20 16  2  0
 21  6  1  0
 21 13  1  0
 22 13  1  0
 22 12  2  0
 23  3  1  0
 23  4  1  0
M  END
$$$$

     RDKit          3D

 13 15  0  0  0  0  0  0  0  0999 V2000
   41.0210   38.3110   32.6890 C   0  0  0  0  0  0  0  0  0  0  0  0
   42.0800   39.3960   33.1860 C   0  0  0  0  0  0  0  0  0  0  0  0
   36.8390   37.8820   33.0700 O   0  0  0  0  0  0  0  0  0  0  0  0
   36.8270   35.1340   33.7170 C   0  0  0  0  0  0  0  0  0  0  0  0
   37.7970   37.1600   32.8630 C   0  0  0  0  0  0  0  0  0  0  0  0
   39.9220   36.5630   32.0340 C   0  0  0  0  0  0  0  0  0  0  0  0
   35.8550   33.4950   32.5830 O   0  0  0  0  0  0  0  0  0  0  0  0
   39.7780   38.5780   33.0960 N   0  0  0  0  0  0  0  0  0  0  0  0
   39.3100   35.3660   32.0660 N   0  0  0  0  0  0  0  0  0  0  0  0
   39.1150   37.5200   32.6920 C   0  0  0  0  0  0  0  0  0  0  0  0
   37.8760   35.5900   32.7100 C   0  0  0  0  0  0  0  0  0  0  0  0
   41.0950   37.0770   32.0460 N   0  0  0  0  0  0  0  0  0  0  0  0
   37.1840   34.1820   32.5700 C   0  0  0  0  0  0  0  0  0  0  0  0
  1  8  2  0
  1  2  1  0
  5  3  2  0
  6 12  1  0
  6  9  2  0
  9 11  1  0
 10  6  1  0
 10  5  1  0
 10  8  1  0
 11  5  1  0
 11  4  1  0
 12  1  1  0
 13  7  1  0
 13 11  1  0
 13  4  1  0
M  END
$$$$

     RDKit          3D

 15 16  0  0  0  0  0  0  0  0999 V2000
   35.7720   37.7380   32.8680 O   0  0  0  0  0  0  0  0  0  0  0  0
   36.1360   33.0690   33.8390 O   0  0  0  0  0  0  0  0  0  0  0  0
   37.6370   35.4030   32.7160 C   0  0  0  0  0  0  0  0  0  0  0  0
   38.2660   36.7680   32.3500 C   0  0  0  0  0  0  0  0  0  0  0  0
   40.3890   37.7790   31.7030 C   0  0  0  0  0  0  0  0  0  0  0  0
   38.3030   34.3710   32.8060 O   0  0  0  0  0  0  0  0  0  0  0  0
   36.1880   35.3920   33.0970 C   0  0  0  0  0  0  0  0  0  0  0  0
   39.6860   36.5630   32.1000 N   0  0  0  0  0  0  0  0  0  0  0  0
   35.5340   34.2080   33.5670 C   0  0  0  0  0  0  0  0  0  0  0  0
   34.0530   36.5740   33.4440 N   0  0  0  0  0  0  0  0  0  0  0  0
   34.1600   34.2430   33.8080 C   0  0  0  0  0  0  0  0  0  0  0  0
   39.4640   38.9390   32.0820 C   0  0  0  0  0  0  0  0  0  0  0  0
   38.1940   38.3210   32.6370 C   0  0  0  0  0  0  0  0  0  0  0  0
   35.3730   36.5520   33.1240 C   0  0  0  0  0  0  0  0  0  0  0  0
   33.4010   35.4860   33.7740 C   0  0  0  0  0  0  0  0  0  0  0  0
  1 14  2  0
  3  6  2  0
  4 13  1  0
  4  3  1  0
  5 12  1  0
  5  8  1  0
  7  3  1  0
  7 14  1  0
  7  9  1  0
  8  4  1  0
  9 11  2  0
  9  2  1  0
 10 15  2  0
 12 13  1  0
 14 10  1  0
 15 11  1  0
M  END
$$$$

     RDKit          3D

  5  4  0  0  0  0  0  0  0  0999 V2000
   34.1170   35.4630   32.0690 O   0  0  0  0  0  0  0  0  0  0  0  0
   34.9520   34.8910   32.7610 C   0  0  0  0  0  0  0  0  0  0  0  0
   36.1870   34.1820   32.2230 C   0  0  0  0  0  0  0  0  0  0  0  0
   37.1740   35.0520   31.5000 C   0  0  0  0  0  0  0  0  0  0  0  0
   38.6450   35.0330   31.9280 C   0  0  0  0  0  0  0  0  0  0  0  0
  1  2  2  0
  3  2  1  0
  4  5  1  0
  4  3  1  0
M  END
$$$$

     RDKit          3D

 14 14  0  0  0  0  0  0  0  0999 V2000
   40.7490   41.4290   30.7260 C   0  0  0  0  0  0  0  0  0  0  0  0
   39.2170   37.4480   31.7800 O   0  0  0  0  0  0  0  0  0  0  0  0
   40.1880   40.1120   31.3880 C   0  0  0  0  0  0  0  0  0  0  0  0
   40.9940   38.9400   30.6650 C   0  0  0  0  0  0  0  0  0  0  0  0
   40.1270   40.3290   32.9400 C   0  0  0  0  0  0  0  0  0  0  0  0
   40.2680   41.4080   33.5000 O   0  0  0  0  0  0  0  0  0  0  0  0
   37.2440   38.1730   32.9740 C   0  0  0  0  0  0  0  0  0  0  0  0
   40.8670   36.4410   30.5420 O   0  0  0  0  0  0  0  0  0  0  0  0
   38.7250   39.6790   31.1370 C   0  0  0  0  0  0  0  0  0  0  0  0
   40.3760   37.5180   30.9220 C   0  0  0  0  0  0  0  0  0  0  0  0
   39.9950   39.1750   33.7310 N   0  0  0  0  0  0  0  0  0  0  0  0
   36.4350   36.9620   32.5000 C   0  0  0  0  0  0  0  0  0  0  0  0
   38.2790   38.6320   32.0360 C   0  0  0  0  0  0  0  0  0  0  0  0
   40.8130   39.2370   34.9570 C   0  0  0  0  0  0  0  0  0  0  0  0
  2 13  1  0
  3  1  1  0
  3  5  1  0
  4 10  1  0
  4  3  1  0
  5  6  2  0
  5 11  1  0
  8 10  2  0
  9  3  1  0
  9 13  1  0
 10  2  1  0
 11 14  1  0
 12  7  1  0
 13  7  1  0
M  END
$$$$

     RDKit          3D

  6  5  0  0  0  0  0  0  0  0999 V2000
   37.9570   37.6030   31.8010 O   0  0  0  0  0  0  0  0  0  0  0  0
   41.1930   36.4120   32.7180 F   0  0  0  0  0  0  0  0  0  0  0  0
   39.6620   35.7300   31.5140 F   0  0  0  0  0  0  0  0  0  0  0  0
   40.1940   36.8940   31.9230 C   0  0  0  0  0  0  0  0  0  0  0  0
   40.9700   37.7610   30.9440 C   0  0  0  0  0  0  0  0  0  0  0  0
   39.1600   37.7650   32.6130 C   0  0  0  0  0  0  0  0  0  0  0  0
  1  6  1  0
  3  4  1  0
  4  6  1  0
  4  2  1  0
  5  4  1  0
M  END
$$$$

     RDKit          3D

 18 19  0  0  0  0  0  0  0  0999 V2000
   36.5420   35.7490   33.5080 C   0  0  0  0  0  0  0  0  0  0  0  0
   38.9630   35.6620   33.5000 C   0  0  0  0  0  0  0  0  0  0  0  0
   40.3020   39.4060   32.6190 C   0  0  0  0  0  0  0  0  0  0  0  0
   37.5730   39.2080   30.5360 F   0  0  0  0  0  0  0  0  0  0  0  0
   34.6620   34.2620   33.2420 C   0  0  0  0  0  0  0  0  0  0  0  0
   40.1660   36.4980   32.9160 C   0  0  0  0  0  0  0  0  0  0  0  0
   36.9590   34.3180   33.8560 C   0  0  0  0  0  0  0  0  0  0  0  0
   38.3380   39.7640   31.4010 C   0  0  0  0  0  0  0  0  0  0  0  0
   39.4570   38.6800   31.7370 C   0  0  0  0  0  0  0  0  0  0  0  0
   37.5500   40.2590   32.3410 F   0  0  0  0  0  0  0  0  0  0  0  0
   37.7740   36.0320   32.7660 O   0  0  0  0  0  0  0  0  0  0  0  0
   38.0220   34.6560   32.8000 C   0  0  0  0  0  0  0  0  0  0  0  0
   39.6780   40.4880   33.1440 O   0  0  0  0  0  0  0  0  0  0  0  0
   39.7370   37.1780   31.6640 N   0  0  0  0  0  0  0  0  0  0  0  0
   41.4820   38.5910   32.8630 O   0  0  0  0  0  0  0  0  0  0  0  0
   38.9460   40.8010   30.7880 F   0  0  0  0  0  0  0  0  0  0  0  0
   35.7360   33.4910   33.8140 O   0  0  0  0  0  0  0  0  0  0  0  0
   35.3190   35.5230   32.7050 C   0  0  0  0  0  0  0  0  0  0  0  0
  2  6  1  0
  3 15  2  0
  3 13  1  0
  4  8  1  0
  5 17  1  0
  7  1  1  0
  8  9  1  0
  8 10  1  0
  9 14  1  0
  9  3  1  0
 11  2  1  0
 12 11  1  0
 12  2  1  0
 12  7  1  0
 14  6  1  0
 16  8  1  0
 17  7  1  0
 18  5  1  0
 18  1  1  0
M  END
$$$$

     RDKit          3D

  9  9  0  0  0  0  0  0  0  0999 V2000
   37.1750   32.3430   33.9320 N   0  0  0  0  0  0  0  0  0  0  0  0
   38.3280   34.1730   32.9330 C   0  0  0  0  0  0  0  0  0  0  0  0
   38.3650   35.5170   32.6280 C   0  0  0  0  0  0  0  0  0  0  0  0
   36.0470   35.7510   33.2610 C   0  0  0  0  0  0  0  0  0  0  0  0
   37.1860   33.6510   33.4930 C   0  0  0  0  0  0  0  0  0  0  0  0
   37.2580   37.7550   32.4290 C   0  0  0  0  0  0  0  0  0  0  0  0
   36.0330   34.4440   33.6370 C   0  0  0  0  0  0  0  0  0  0  0  0
   37.2300   36.3080   32.8050 C   0  0  0  0  0  0  0  0  0  0  0  0
   35.9870   38.4510   32.2890 C   0  0  0  0  0  0  0  0  0  0  0  0
  2  5  1  0
  3  8  1  0
  3  2  2  0
  4  7  1  0
  5  7  2  0
  5  1  1  0
  6  8  1  0
  8  4  2  0
  9  6  1  0
M  END
$$$$

     RDKit          3D

 25 27  0  0  0  0  0  0  0  0999 V2000
   37.5440   35.9910   32.5250 C   0  0  0  0  0  0  0  0  0  0  0  0
   35.6550   30.2430   34.3150 C   0  0  0  0  0  0  0  0  0  0  0  0
   41.7720   42.3990   32.2070 C   0  0  0  0  0  0  0  0  0  0  0  0
   39.6360   39.9810   32.4910 C   0  0  0  0  0  0  0  0  0  0  0  0
   39.4550   34.7800   32.7830 O   0  0  0  0  0  0  0  0  0  0  0  0
   40.2270   40.9460   33.3810 C   0  0  0  0  0  0  0  0  0  0  0  0
   36.0020   32.2470   33.5350 C   0  0  0  0  0  0  0  0  0  0  0  0
   41.9140   42.4160   30.7120 C   0  0  0  0  0  0  0  0  0  0  0  0
   41.3450   38.2440   31.7590 C   0  0  0  0  0  0  0  0  0  0  0  0
   41.8170   41.1330   33.1210 C   0  0  0  0  0  0  0  0  0  0  0  0
   35.4630   34.9620   33.3190 C   0  0  0  0  0  0  0  0  0  0  0  0
   38.1910   34.7810   32.6890 C   0  0  0  0  0  0  0  0  0  0  0  0
   37.7210   32.3900   31.9630 C   0  0  0  0  0  0  0  0  0  0  0  0
   37.3390   33.6780   32.5910 C   0  0  0  0  0  0  0  0  0  0  0  0
   40.1150   38.5690   32.4590 N   0  0  0  0  0  0  0  0  0  0  0  0
   40.8770   43.5520   32.6070 C   0  0  0  0  0  0  0  0  0  0  0  0
   36.8400   31.4880   32.8420 C   0  0  0  0  0  0  0  0  0  0  0  0
   36.1980   36.0810   32.9120 C   0  0  0  0  0  0  0  0  0  0  0  0
   41.5040   36.8420   31.6930 O   0  0  0  0  0  0  0  0  0  0  0  0
   35.3430   31.4450   34.4390 N   0  0  0  0  0  0  0  0  0  0  0  0
   36.0740   33.6830   33.2500 C   0  0  0  0  0  0  0  0  0  0  0  0
   35.5540   29.1530   35.3530 C   0  0  0  0  0  0  0  0  0  0  0  0
   36.5220   30.2770   33.3110 N   0  0  0  0  0  0  0  0  0  0  0  0
   38.3390   36.9710   31.9710 C   0  0  0  0  0  0  0  0  0  0  0  0
   39.2620   37.6510   32.8050 C   0  0  0  0  0  0  0  0  0  0  0  0
  1 12  1  0
  1 18  2  0
  2 20  2  0
  2 22  1  0
  3 16  1  0
  3 10  1  0
  4  6  1  0
  7 20  1  0
  8  3  1  0
  9 15  1  0
 10  6  1  0
 12  5  2  0
 13 17  1  0
 14 13  1  0
 14 12  1  0
 14 21  1  0
 15  4  1  0
 15 25  1  0
 17 23  1  0
 17  7  2  0
 18 11  1  0
 19  9  1  0
 21 11  2  0
 21  7  1  0
 23  2  1  0
 24  1  1  0
 24 25  2  3
M  END
$$$$

     RDKit          3D

 17 18  0  0  0  0  0  0  0  0999 V2000
   33.1990   37.1880   31.5250 C   0  0  0  0  0  0  0  0  0  0  0  0
   32.5090   37.4880   30.6460 N   0  0  0  0  0  0  0  0  0  0  0  0
   41.0110   36.7720   31.6260 C   0  0  0  0  0  0  0  0  0  0  0  0
   40.1380   38.8570   33.2590 C   0  0  0  0  0  0  0  0  0  0  0  0
   41.8310   37.8000   31.9940 C   0  0  0  0  0  0  0  0  0  0  0  0
   39.6860   36.9210   31.8590 C   0  0  0  0  0  0  0  0  0  0  0  0
   39.9930   40.2060   34.4900 Cl  0  0  0  0  0  0  0  0  0  0  0  0
   34.8360   36.2940   33.0180 N   0  0  0  0  0  0  0  0  0  0  0  0
   37.0670   36.7470   33.2970 N   0  0  0  0  0  0  0  0  0  0  0  0
   41.4210   38.8660   32.7820 C   0  0  0  0  0  0  0  0  0  0  0  0
   35.5260   38.0910   31.5780 C   0  0  0  0  0  0  0  0  0  0  0  0
   36.1300   34.8390   34.2540 N   0  0  0  0  0  0  0  0  0  0  0  0
   35.9990   35.9760   33.4920 C   0  0  0  0  0  0  0  0  0  0  0  0
   34.7520   37.1900   32.0810 C   0  0  0  0  0  0  0  0  0  0  0  0
   39.0730   37.9790   32.6010 C   0  0  0  0  0  0  0  0  0  0  0  0
   36.7430   38.4440   31.6890 N   0  0  0  0  0  0  0  0  0  0  0  0
   37.5670   37.7100   32.4770 C   0  0  0  0  0  0  0  0  0  0  0  0
  2  1  2  0
  3  6  2  0
  3  5  1  0
  4  7  1  0
  5 10  2  0
  6 15  1  0
  8 13  2  0
  9 13  1  0
 10  4  1  0
 11 16  2  0
 11 14  1  0
 13 12  1  0
 14  1  1  0
 14  8  1  0
 15  4  2  0
 16 17  1  0
 17 15  1  0
 17  9  2  0
M  END
$$$$

     RDKit          3D

 14 15  0  0  0  0  0  0  0  0999 V2000
   33.9910   37.3080   31.5010 O   0  0  0  0  0  0  0  0  0  0  0  0
   34.4080   36.7350   32.5660 C   0  0  0  0  0  0  0  0  0  0  0  0
   31.8550   36.4960   33.0810 C   0  0  0  0  0  0  0  0  0  0  0  0
   41.4570   36.2890   31.3300 C   0  0  0  0  0  0  0  0  0  0  0  0
   38.1150   36.4150   32.6740 C   0  0  0  0  0  0  0  0  0  0  0  0
   40.4170   36.7040   32.1920 N   0  0  0  0  0  0  0  0  0  0  0  0
   35.8020   36.5720   32.9130 C   0  0  0  0  0  0  0  0  0  0  0  0
   37.8230   34.3000   33.0460 N   0  0  0  0  0  0  0  0  0  0  0  0
   39.3470   35.8840   32.4650 N   0  0  0  0  0  0  0  0  0  0  0  0
   39.1010   34.5300   32.7530 C   0  0  0  0  0  0  0  0  0  0  0  0
   36.4420   37.9960   32.7570 C   0  0  0  0  0  0  0  0  0  0  0  0
   33.3200   36.5050   33.3010 O   0  0  0  0  0  0  0  0  0  0  0  0
   37.8860   37.7380   32.6570 N   0  0  0  0  0  0  0  0  0  0  0  0
   37.0840   35.4150   32.9560 C   0  0  0  0  0  0  0  0  0  0  0  0
  1  2  2  0
  2  7  1  0
  2 12  1  0
  3 12  1  0
  4  6  1  0
  6  9  1  0
  7 14  1  0
  9  5  1  0
  9 10  1  0
 10  8  2  0
 11  7  2  0
 13  5  2  0
 13 11  1  0
 14  5  1  0
 14  8  1  0
M  END
$$$$

     RDKit          3D

 10 10  0  0  0  0  0  0  0  0999 V2000
   40.5480   36.7150   31.8150 C   0  0  0  0  0  0  0  0  0  0  0  0
   36.8360   35.3410   33.6780 C   0  0  0  0  0  0  0  0  0  0  0  0
   40.9650   38.0850   31.5990 C   0  0  0  0  0  0  0  0  0  0  0  0
   39.2490   36.4210   32.5030 C   0  0  0  0  0  0  0  0  0  0  0  0
   37.9100   34.5070   33.3660 N   0  0  0  0  0  0  0  0  0  0  0  0
   39.0820   35.0650   32.8420 C   0  0  0  0  0  0  0  0  0  0  0  0
   36.7750   36.7630   33.3840 S   0  0  0  0  0  0  0  0  0  0  0  0
   35.7340   34.5310   34.1950 C   0  0  0  0  0  0  0  0  0  0  0  0
   38.0680   37.2710   32.7230 C   0  0  0  0  0  0  0  0  0  0  0  0
   37.9960   38.5490   32.4450 O   0  0  0  0  0  0  0  0  0  0  0  0
  1  4  1  0
  2  8  1  0
  3  1  1  0
  4  9  1  0
  4  6  2  0
  5  2  2  0
  6  5  1  0
  7  2  1  0
  9  7  1  0
 10  9  2  0
M  END
$$$$

     RDKit          3D

 18 21  0  0  0  0  0  0  0  0999 V2000
   35.4990   33.0520   32.5990 O   0  0  0  0  0  0  0  0  0  0  0  0
   37.9310   33.2270   34.2630 C   0  0  0  0  0  0  0  0  0  0  0  0
   40.1080   33.8060   35.5170 N   0  0  0  0  0  0  0  0  0  0  0  0
   40.8390   31.7530   35.8060 N   0  0  0  0  0  0  0  0  0  0  0  0
   32.7930   35.3060   33.7120 O   0  0  0  0  0  0  0  0  0  0  0  0
   34.7950   36.9670   33.7420 N   0  0  0  0  0  0  0  0  0  0  0  0
   33.5790   37.5140   33.5800 O   0  0  0  0  0  0  0  0  0  0  0  0
   39.3190   34.9710   35.2420 C   0  0  0  0  0  0  0  0  0  0  0  0
   39.4150   35.9380   36.3780 C   0  0  0  0  0  0  0  0  0  0  0  0
   33.6840   36.0620   33.5840 C   0  0  0  0  0  0  0  0  0  0  0  0
   37.1890   35.4840   34.1190 O   0  0  0  0  0  0  0  0  0  0  0  0
   38.8200   32.3440   34.6720 N   0  0  0  0  0  0  0  0  0  0  0  0
   35.1070   35.7980   33.2330 C   0  0  0  0  0  0  0  0  0  0  0  0
   39.9470   32.6850   35.3610 C   0  0  0  0  0  0  0  0  0  0  0  0
   38.1390   34.5590   34.4960 C   0  0  0  0  0  0  0  0  0  0  0  0
   36.1930   33.8190   33.1790 C   0  0  0  0  0  0  0  0  0  0  0  0
   39.7600   36.3420   34.6860 S   0  0  0  0  0  0  0  0  0  0  0  0
   36.1610   34.9970   33.5010 C   0  0  0  0  0  0  0  0  0  0  0  0
  1 16  2  0
  2 15  1  0
  2 12  2  0
  6  7  1  0
  7 10  1  0
  8  3  1  0
  8  9  1  0
 10  5  1  0
 10  6  1  0
 12 14  1  0
 13 18  1  0
 13 10  1  0
 13  6  1  0
 14  3  2  0
 14  4  1  0
 15 11  1  0
 15  8  1  0
 17  8  1  0
 17  9  1  0
 18 16  1  0
 18 11  1  0
M  END
$$$$

     RDKit          3D

 28 27  0  0  0  0  0  0  0  0999 V2000
   41.0810   37.2010   33.1730 O   0  0  0  0  0  0  0  0  0  0  0  0
   38.2030   38.3620   32.8700 N   0  0  0  0  0  0  0  0  0  0  0  0
   40.7020   40.8980   31.9340 C   0  0  0  0  0  0  0  0  0  0  0  0
   31.9330   31.8760   33.9510 N   0  0  0  0  0  0  0  0  0  0  0  0
   43.2820   39.0410   33.0260 O   0  0  0  0  0  0  0  0  0  0  0  0
   40.1000   39.8280   32.6060 C   0  0  0  0  0  0  0  0  0  0  0  0
   37.3540   37.5620   32.7740 C   0  0  0  0  0  0  0  0  0  0  0  0
   35.5410   34.7970   33.3120 C   0  0  0  0  0  0  0  0  0  0  0  0
   36.2320   37.0850   32.9510 N   0  0  0  0  0  0  0  0  0  0  0  0
   31.5940   33.3990   34.4830 C   0  0  0  0  0  0  0  0  0  0  0  0
   37.8750   40.6110   32.3140 O   0  0  0  0  0  0  0  0  0  0  0  0
   32.2220   34.1580   33.5140 C   0  0  0  0  0  0  0  0  0  0  0  0
   42.9010   37.9990   28.8490 O   0  0  0  0  0  0  0  0  0  0  0  0
   33.4960   34.0740   33.6270 O   0  0  0  0  0  0  0  0  0  0  0  0
   42.0020   39.1540   30.8550 C   0  0  0  0  0  0  0  0  0  0  0  0
   29.6770   35.4440   35.8590 C   0  0  0  0  0  0  0  0  0  0  0  0
   34.6190   33.5760   32.9830 C   0  0  0  0  0  0  0  0  0  0  0  0
   29.9580   34.5180   34.8520 C   0  0  0  0  0  0  0  0  0  0  0  0
   35.3420   36.1600   33.2310 C   0  0  0  0  0  0  0  0  0  0  0  0
   40.0650   42.0950   31.9910 O   0  0  0  0  0  0  0  0  0  0  0  0
   40.9010   38.6280   33.0650 C   0  0  0  0  0  0  0  0  0  0  0  0
   42.1610   39.0360   32.3870 C   0  0  0  0  0  0  0  0  0  0  0  0
   30.4250   33.0170   35.2430 N   0  0  0  0  0  0  0  0  0  0  0  0
   42.8470   38.0500   30.2660 C   0  0  0  0  0  0  0  0  0  0  0  0
   37.2990   35.4830   31.6000 C   0  0  0  0  0  0  0  0  0  0  0  0
   37.0090   34.6390   32.7460 C   0  0  0  0  0  0  0  0  0  0  0  0
   29.9190   32.4390   36.0210 O   0  0  0  0  0  0  0  0  0  0  0  0
   38.6110   39.6270   32.5600 C   0  0  0  0  0  0  0  0  0  0  0  0
  3 20  1  0
  4 10  2  0
  6  3  1  0
  6 21  1  0
  7  2  1  0
  7  9  1  0
  8 26  1  0
  9 19  1  0
 10 23  1  0
 11 28  2  0
 12 14  1  0
 12 10  1  0
 13 24  1  0
 15 22  1  0
 17  8  1  0
 17 14  1  0
 18 23  1  0
 18 16  1  0
 19  8  1  0
 21  1  1  0
 22  5  1  0
 22 21  1  0
 23 27  1  0
 24 15  1  0
 25 26  1  0
 28  6  1  0
 28  2  1  0
M  END
$$$$

     RDKit          3D

 11 11  0  0  0  0  0  0  0  0999 V2000
   39.8010   37.4840   31.8270 C   0  0  0  0  0  0  0  0  0  0  0  0
   38.6440   39.0780   32.7630 O   0  0  0  0  0  0  0  0  0  0  0  0
   37.7720   36.8970   33.6540 N   0  0  0  0  0  0  0  0  0  0  0  0
   41.6780   37.3070   30.4340 O   0  0  0  0  0  0  0  0  0  0  0  0
   41.3270   40.3670   33.2670 O   0  0  0  0  0  0  0  0  0  0  0  0
   40.9320   36.8720   31.2560 C   0  0  0  0  0  0  0  0  0  0  0  0
   39.9780   38.7280   32.6210 C   0  0  0  0  0  0  0  0  0  0  0  0
   38.4560   37.3190   31.5870 O   0  0  0  0  0  0  0  0  0  0  0  0
   40.6200   39.8250   31.8550 C   0  0  0  0  0  0  0  0  0  0  0  0
   36.4600   38.4350   32.5980 O   0  0  0  0  0  0  0  0  0  0  0  0
   37.7690   37.9250   32.6320 C   0  0  0  0  0  0  0  0  0  0  0  0
  1  6  1  0
  1  7  1  0
  4  6  2  0
  7  9  1  0
  7  2  1  0
  8  1  1  0
  8 11  1  0
  9  5  1  0
 11 10  1  0
 11  2  1  0
 11  3  1  0
M  END
$$$$

     RDKit          3D

 25 26  0  0  0  0  0  0  0  0999 V2000
   39.3580   38.9460   32.5350 N   0  0  0  0  0  0  0  0  0  0  0  0
   31.1150   32.8070   35.2930 C   0  0  0  0  0  0  0  0  0  0  0  0
   41.5650   42.1030   33.7360 O   0  0  0  0  0  0  0  0  0  0  0  0
   40.1490   39.9940   32.9740 C   0  0  0  0  0  0  0  0  0  0  0  0
   38.2310   33.3280   32.5050 C   0  0  0  0  0  0  0  0  0  0  0  0
   41.8890   40.9650   33.9400 C   0  0  0  0  0  0  0  0  0  0  0  0
   35.1170   31.9220   33.5050 C   0  0  0  0  0  0  0  0  0  0  0  0
   40.0800   37.8730   32.7310 C   0  0  0  0  0  0  0  0  0  0  0  0
   37.7380   35.9400   33.0770 C   0  0  0  0  0  0  0  0  0  0  0  0
   30.2210   31.9300   36.2060 C   0  0  0  0  0  0  0  0  0  0  0  0
   32.9050   30.6900   34.9800 O   0  0  0  0  0  0  0  0  0  0  0  0
   41.1580   38.1570   33.4520 N   0  0  0  0  0  0  0  0  0  0  0  0
   33.7570   31.9520   33.4350 O   0  0  0  0  0  0  0  0  0  0  0  0
   39.1740   34.2740   32.1820 C   0  0  0  0  0  0  0  0  0  0  0  0
   35.7000   33.2610   33.2170 C   0  0  0  0  0  0  0  0  0  0  0  0
   41.2900   39.6560   33.3550 C   0  0  0  0  0  0  0  0  0  0  0  0
   37.0720   33.6710   32.9900 C   0  0  0  0  0  0  0  0  0  0  0  0
   38.9050   35.5640   32.4390 C   0  0  0  0  0  0  0  0  0  0  0  0
   34.7000   34.3160   33.4770 O   0  0  0  0  0  0  0  0  0  0  0  0
   32.0700   32.8800   34.6030 C   0  0  0  0  0  0  0  0  0  0  0  0
   36.8740   35.0430   33.4700 C   0  0  0  0  0  0  0  0  0  0  0  0
   32.6990   31.7030   33.9740 C   0  0  0  0  0  0  0  0  0  0  0  0
   39.7190   36.6320   32.2160 N   0  0  0  0  0  0  0  0  0  0  0  0
   42.9240   40.7470   34.7230 N   0  0  0  0  0  0  0  0  0  0  0  0
   30.1150   33.5590   35.1820 F   0  0  0  0  0  0  0  0  0  0  0  0
  1  8  2  0
  1  4  1  0
  2 10  1  0
  3  6  2  0
  4 16  1  0
  5 17  1  0
  6 24  1  0
  8 12  2  0
  9 21  1  0
 13  7  1  0
 13 22  1  0
 14 18  1  0
 14  5  2  0
 15 19  1  0
 15  7  1  0
 16 12  1  0
 16  6  1  0
 17 15  1  0
 17 21  2  0
 18  9  2  0
 20  2  1  0
 22 20  1  0
 22 11  1  0
 23 18  1  0
 23  8  1  0
 25  2  1  0
M  END
$$$$

     RDKit          3D

 13 13  0  0  0  0  0  0  0  0999 V2000
   41.4080   37.3790   30.3520 O   0  0  0  0  0  0  0  0  0  0  0  0
   40.5540   39.0480   34.9370 O   0  0  0  0  0  0  0  0  0  0  0  0
   38.3420   39.3250   33.6820 O   0  0  0  0  0  0  0  0  0  0  0  0
   40.3320   39.8130   31.0550 C   0  0  0  0  0  0  0  0  0  0  0  0
   39.5030   38.9210   31.6520 O   0  0  0  0  0  0  0  0  0  0  0  0
   39.8270   39.3490   33.7080 C   0  0  0  0  0  0  0  0  0  0  0  0
   39.9160   42.0880   31.2350 O   0  0  0  0  0  0  0  0  0  0  0  0
   40.3170   40.8860   33.3660 C   0  0  0  0  0  0  0  0  0  0  0  0
   40.8450   36.9950   31.4570 C   0  0  0  0  0  0  0  0  0  0  0  0
   40.3370   41.0660   31.8520 C   0  0  0  0  0  0  0  0  0  0  0  0
   40.1740   38.1180   32.5270 C   0  0  0  0  0  0  0  0  0  0  0  0
   41.6220   41.1280   33.9560 O   0  0  0  0  0  0  0  0  0  0  0  0
   40.7030   35.8990   31.8250 O   0  0  0  0  0  0  0  0  0  0  0  0
  1  9  2  0
  3  6  1  0
  4  5  1  0
  4 10  1  0
  5 11  1  0
  6  2  1  0
  7 10  2  0
  8  6  1  0
  8 12  1  0
  9 13  1  0
 10  8  1  0
 11  9  1  0
 11  6  1  0
M  END
$$$$

     RDKit          3D

  7  6  0  0  0  0  0  0  0  0999 V2000
   38.8540   38.5770   33.1020 C   0  0  0  0  0  0  0  0  0  0  0  0
   38.2020   39.3850   32.5590 O   0  0  0  0  0  0  0  0  0  0  0  0
   38.9820   36.1860   32.3130 C   0  0  0  0  0  0  0  0  0  0  0  0
   38.5710   37.1190   33.4820 C   0  0  0  0  0  0  0  0  0  0  0  0
   39.8810   36.6140   31.5190 O   0  0  0  0  0  0  0  0  0  0  0  0
   39.8700   39.1790   33.2930 O   0  0  0  0  0  0  0  0  0  0  0  0
   38.3940   35.1400   32.0160 O   0  0  0  0  0  0  0  0  0  0  0  0
  1  6  1  0
  1  4  1  0
  2  1  2  0
  3  4  1  0
  5  3  2  0
  7  3  1  0
M  END
$$$$
