
     RDKit          3D

 20 20  0  0  0  0  0  0  0  0999 V2000
   41.7900   39.6640   26.1310 C   0  0  0  0  0  0  0  0  0  0  0  0
   37.0510   34.0320   32.2460 C   0  0  0  0  0  0  0  0  0  0  0  0
   35.4950   32.8340   33.5880 C   0  0  0  0  0  0  0  0  0  0  0  0
   37.6110   36.3050   30.7490 O   0  0  0  0  0  0  0  0  0  0  0  0
   37.3090   31.5530   32.5290 N   0  0  0  0  0  0  0  0  0  0  0  0
   39.4810   39.2470   27.6580 O   0  0  0  0  0  0  0  0  0  0  0  0
   38.8020   35.5350   31.0410 C   0  0  0  0  0  0  0  0  0  0  0  0
   41.7050   38.9580   27.4000 O   0  0  0  0  0  0  0  0  0  0  0  0
   41.0990   36.5900   29.9050 C   0  0  0  0  0  0  0  0  0  0  0  0
   36.6600   32.6540   32.8240 C   0  0  0  0  0  0  0  0  0  0  0  0
   35.9430   34.9640   32.4770 C   0  0  0  0  0  0  0  0  0  0  0  0
   40.2630   37.4550   28.9440 C   0  0  0  0  0  0  0  0  0  0  0  0
   39.1290   37.0980   28.9160 O   0  0  0  0  0  0  0  0  0  0  0  0
   34.8980   34.2420   33.3050 C   0  0  0  0  0  0  0  0  0  0  0  0
   40.2800   35.4480   30.5750 C   0  0  0  0  0  0  0  0  0  0  0  0
   39.2830   33.3090   31.8350 O   0  0  0  0  0  0  0  0  0  0  0  0
   33.8340   35.1770   33.9230 C   0  0  0  0  0  0  0  0  0  0  0  0
   40.5500   38.6540   28.0930 C   0  0  0  0  0  0  0  0  0  0  0  0
   34.6450   32.1840   34.2810 O   0  0  0  0  0  0  0  0  0  0  0  0
   38.3780   34.2110   31.7240 C   0  0  0  0  0  0  0  0  0  0  0  0
  1  8  1  0
  2 20  1  0
  2 11  1  0
  2 10  1  0
  3 19  2  0
  5 10  2  0
  6 18  2  0
  7  4  1  0
  7 20  1  0
  8 18  1  0
  9 15  1  0
 10  3  1  0
 11 14  1  0
 12  9  1  0
 13 12  2  0
 14  3  1  0
 14 17  1  0
 15  7  1  0
 18 12  1  0
 20 16  2  0
M  END
$$$$

     RDKit          3D

  7  6  0  0  0  0  0  0  0  0999 V2000
   43.0250   37.0680   28.8300 C   0  0  0  0  0  0  0  0  0  0  0  0
   43.0150   35.9170   28.1080 N   0  0  0  0  0  0  0  0  0  0  0  0
   41.7600   35.6910   27.3720 C   0  0  0  0  0  0  0  0  0  0  0  0
   44.0370   35.9460   26.9730 C   0  0  0  0  0  0  0  0  0  0  0  0
   42.6800   38.4710   28.2860 C   0  0  0  0  0  0  0  0  0  0  0  0
   43.2260   34.6520   28.8480 C   0  0  0  0  0  0  0  0  0  0  0  0
   42.7380   37.1810   30.2610 C   0  0  0  0  0  0  0  0  0  0  0  0
  1  7  1  0
  2  1  1  0
  2  6  1  0
  3  2  1  0
  4  2  1  0
  5  1  1  0
M  END
$$$$

     RDKit          3D

  6  5  0  0  0  0  0  0  0  0999 V2000
   42.6030   35.7670   27.3390 C   0  0  0  0  0  0  0  0  0  0  0  0
   42.1810   36.6850   28.4500 C   0  0  0  0  0  0  0  0  0  0  0  0
   43.0340   34.1080   28.8830 F   0  0  0  0  0  0  0  0  0  0  0  0
   43.2070   35.0080   28.0000 C   0  0  0  0  0  0  0  0  0  0  0  0
   42.1550   36.0140   29.6580 N   0  0  0  0  0  0  0  0  0  0  0  0
   44.1370   35.6730   27.6960 F   0  0  0  0  0  0  0  0  0  0  0  0
  1  4  1  0
  1  2  1  0
  2  5  1  0
  4  3  1  0
  6  4  1  0
M  END
$$$$

     RDKit          3D

 11 12  0  0  0  0  0  0  0  0999 V2000
   38.9940   36.1540   30.6250 C   0  0  0  0  0  0  0  0  0  0  0  0
   41.1790   37.1350   31.1550 N   0  0  0  0  0  0  0  0  0  0  0  0
   40.3750   36.1300   30.8200 C   0  0  0  0  0  0  0  0  0  0  0  0
   43.0020   35.5400   31.0270 C   0  0  0  0  0  0  0  0  0  0  0  0
   40.8440   34.8020   30.7230 C   0  0  0  0  0  0  0  0  0  0  0  0
   38.3180   37.2090   30.5980 O   0  0  0  0  0  0  0  0  0  0  0  0
   38.5990   34.8190   30.5910 N   0  0  0  0  0  0  0  0  0  0  0  0
   39.5730   32.7220   30.9470 O   0  0  0  0  0  0  0  0  0  0  0  0
   42.4740   36.7830   31.4450 C   0  0  0  0  0  0  0  0  0  0  0  0
   42.2270   34.4860   30.6250 N   0  0  0  0  0  0  0  0  0  0  0  0
   39.6740   33.9510   30.7740 C   0  0  0  0  0  0  0  0  0  0  0  0
  1  3  1  0
  2  9  1  0
  3  2  2  0
  4  9  1  0
  5 10  1  0
  5 11  1  0
  5  3  1  0
  6  1  2  0
  7  1  1  0
  7 11  1  0
 10  4  1  0
 11  8  2  0
M  END
$$$$

     RDKit          3D

 11 11  0  0  0  0  0  0  0  0999 V2000
   40.4160   34.8720   30.1950 C   0  0  0  0  0  0  0  0  0  0  0  0
   42.8660   35.6890   29.6540 C   0  0  0  0  0  0  0  0  0  0  0  0
   40.4510   37.2870   28.7030 C   0  0  0  0  0  0  0  0  0  0  0  0
   39.4570   36.9700   30.6950 C   0  0  0  0  0  0  0  0  0  0  0  0
   41.5570   38.3810   30.4360 O   0  0  0  0  0  0  0  0  0  0  0  0
   40.8450   37.1730   30.1380 C   0  0  0  0  0  0  0  0  0  0  0  0
   41.5620   35.8820   30.4290 C   0  0  0  0  0  0  0  0  0  0  0  0
   44.0120   36.3600   30.4530 O   0  0  0  0  0  0  0  0  0  0  0  0
   39.1760   35.6770   30.1090 O   0  0  0  0  0  0  0  0  0  0  0  0
   41.2140   37.1650   27.7430 O   0  0  0  0  0  0  0  0  0  0  0  0
   41.0650   33.4420   30.3740 C   0  0  0  0  0  0  0  0  0  0  0  0
  1 11  1  0
  1  7  1  0
  2  8  1  0
  3  6  1  0
  6  7  1  0
  6  5  1  0
  6  4  1  0
  7  2  1  0
  9  1  1  0
  9  4  1  0
 10  3  2  0
M  END
$$$$

     RDKit          3D

  7  7  0  0  0  0  0  0  0  0999 V2000
   41.5290   37.5190   31.3590 O   0  0  0  0  0  0  0  0  0  0  0  0
   40.3540   35.5870   30.6560 C   0  0  0  0  0  0  0  0  0  0  0  0
   41.6750   35.2500   30.0520 C   0  0  0  0  0  0  0  0  0  0  0  0
   40.3410   37.0030   31.1220 C   0  0  0  0  0  0  0  0  0  0  0  0
   39.5420   36.6700   32.1180 F   0  0  0  0  0  0  0  0  0  0  0  0
   41.2150   34.5440   31.3460 C   0  0  0  0  0  0  0  0  0  0  0  0
   39.7510   37.9980   30.2890 F   0  0  0  0  0  0  0  0  0  0  0  0
  2  4  1  0
  2  6  1  0
  3  2  1  0
  3  6  1  0
  4  1  1  0
  4  5  1  0
  7  4  1  0
M  END
$$$$

     RDKit          3D

 20 21  0  0  0  0  0  0  0  0999 V2000
   40.2760   35.5910   31.5510 C   0  0  0  0  0  0  0  0  0  0  0  0
   35.4780   36.0490   31.5380 C   0  0  0  0  0  0  0  0  0  0  0  0
   35.4860   33.4430   33.5150 C   0  0  0  0  0  0  0  0  0  0  0  0
   37.8230   31.3770   34.1530 C   0  0  0  0  0  0  0  0  0  0  0  0
   43.6620   36.2050   29.3060 O   0  0  0  0  0  0  0  0  0  0  0  0
   39.2010   36.1840   31.0770 N   0  0  0  0  0  0  0  0  0  0  0  0
   37.9100   33.3720   32.7960 C   0  0  0  0  0  0  0  0  0  0  0  0
   42.4600   34.3200   29.4590 O   0  0  0  0  0  0  0  0  0  0  0  0
   42.5190   35.5870   29.6460 C   0  0  0  0  0  0  0  0  0  0  0  0
   38.7010   34.3510   32.2630 C   0  0  0  0  0  0  0  0  0  0  0  0
   38.6570   32.3310   33.4670 O   0  0  0  0  0  0  0  0  0  0  0  0
   41.6490   35.9090   31.2040 C   0  0  0  0  0  0  0  0  0  0  0  0
   41.4910   37.7710   29.7810 O   0  0  0  0  0  0  0  0  0  0  0  0
   42.5110   35.0870   32.0570 O   0  0  0  0  0  0  0  0  0  0  0  0
   38.1280   35.4270   31.6660 C   0  0  0  0  0  0  0  0  0  0  0  0
   36.6250   33.6940   32.8640 C   0  0  0  0  0  0  0  0  0  0  0  0
   34.5720   35.4640   32.6030 C   0  0  0  0  0  0  0  0  0  0  0  0
   36.9090   35.9860   31.6860 N   0  0  0  0  0  0  0  0  0  0  0  0
   40.0410   34.4850   32.2290 N   0  0  0  0  0  0  0  0  0  0  0  0
   41.3890   36.3420   29.7930 C   0  0  0  0  0  0  0  0  0  0  0  0
  1 19  1  0
  2 18  1  0
  2 17  1  0
  5  9  1  0
  6  1  2  0
  6 15  2  0
  7 16  1  0
  7 11  1  0
  8  9  1  0
  9 20  1  0
  9 12  1  0
 10  7  2  3
 11  4  1  0
 12  1  1  0
 12 14  1  0
 15 18  1  0
 15 10  1  0
 16  3  2  0
 19 10  1  0
 20 13  1  0
 20 12  1  0
M  END
$$$$

     RDKit          3D

  5  4  0  0  0  0  0  0  0  0999 V2000
   40.6440   37.3650   28.3730 F   0  0  0  0  0  0  0  0  0  0  0  0
   42.5750   34.4830   27.7890 O   0  0  0  0  0  0  0  0  0  0  0  0
   42.3940   36.6430   26.9970 O   0  0  0  0  0  0  0  0  0  0  0  0
   41.9910   35.4730   27.5880 C   0  0  0  0  0  0  0  0  0  0  0  0
   41.0430   36.1700   28.5490 C   0  0  0  0  0  0  0  0  0  0  0  0
  1  5  1  0
  3  4  2  0
  4  2  1  0
  4  5  1  0
M  END
$$$$

     RDKit          3D

 11 10  0  0  0  0  0  0  0  0999 V2000
   42.9090   39.6820   31.3760 O   0  0  0  0  0  0  0  0  0  0  0  0
   40.9980   36.2450   28.3740 C   0  0  0  0  0  0  0  0  0  0  0  0
   41.4820   38.0280   30.5030 C   0  0  0  0  0  0  0  0  0  0  0  0
   41.7850   35.4200   29.2490 N   0  0  0  0  0  0  0  0  0  0  0  0
   42.7590   38.3970   31.1900 C   0  0  0  0  0  0  0  0  0  0  0  0
   41.9960   34.0650   28.7890 C   0  0  0  0  0  0  0  0  0  0  0  0
   43.3630   34.8470   31.0860 C   0  0  0  0  0  0  0  0  0  0  0  0
   41.1250   36.7370   31.0130 N   0  0  0  0  0  0  0  0  0  0  0  0
   39.5790   36.9140   29.0910 S   0  0  0  0  0  0  0  0  0  0  0  0
   42.2170   35.9200   30.5380 C   0  0  0  0  0  0  0  0  0  0  0  0
   43.5820   37.6780   31.8890 O   0  0  0  0  0  0  0  0  0  0  0  0
  2  9  1  0
  2  4  1  0
  3  8  1  0
  3  5  1  0
  4 10  1  0
  5  1  2  0
  5 11  1  0
  6  4  1  0
 10  8  1  0
 10  7  1  0
M  END
$$$$

     RDKit          3D

 12 12  0  0  0  0  0  0  0  0999 V2000
   39.4520   34.5450   31.2060 C   0  0  0  0  0  0  0  0  0  0  0  0
   33.2170   36.7010   31.4520 C   0  0  0  0  0  0  0  0  0  0  0  0
   36.0860   35.7170   31.7340 N   0  0  0  0  0  0  0  0  0  0  0  0
   39.7930   33.6490   31.9640 O   0  0  0  0  0  0  0  0  0  0  0  0
   35.0520   35.3250   32.5050 C   0  0  0  0  0  0  0  0  0  0  0  0
   41.8580   35.2690   30.7430 C   0  0  0  0  0  0  0  0  0  0  0  0
   33.6550   35.7470   32.5860 C   0  0  0  0  0  0  0  0  0  0  0  0
   35.3480   34.0480   33.2680 C   0  0  0  0  0  0  0  0  0  0  0  0
   36.7440   33.6960   32.8070 C   0  0  0  0  0  0  0  0  0  0  0  0
   37.0560   34.8150   31.8530 C   0  0  0  0  0  0  0  0  0  0  0  0
   40.4460   35.1670   30.2110 C   0  0  0  0  0  0  0  0  0  0  0  0
   38.0970   34.9030   31.1210 N   0  0  0  0  0  0  0  0  0  0  0  0
  1  4  2  0
  2  7  1  0
  3 10  2  0
  3  5  1  0
  5  7  1  0
  5  8  2  0
  9  8  1  0
 10  9  1  0
 11  6  1  0
 11  1  1  0
 12  1  1  0
 12 10  1  0
M  END
$$$$

     RDKit          3D

 23 25  0  0  0  0  0  0  0  0999 V2000
   43.1940   35.2510   27.0930 O   0  0  0  0  0  0  0  0  0  0  0  0
   34.0320   34.1520   33.1810 C   0  0  0  0  0  0  0  0  0  0  0  0
   38.4650   36.6070   29.6010 S   0  0  0  0  0  0  0  0  0  0  0  0
   42.0780   37.5060   25.8060 C   0  0  0  0  0  0  0  0  0  0  0  0
   34.7680   35.3020   32.6190 C   0  0  0  0  0  0  0  0  0  0  0  0
   43.5400   37.6200   26.3240 C   0  0  0  0  0  0  0  0  0  0  0  0
   32.3270   35.9210   30.0720 C   0  0  0  0  0  0  0  0  0  0  0  0
   40.8430   36.7810   28.1080 N   0  0  0  0  0  0  0  0  0  0  0  0
   35.3080   36.3960   31.7580 C   0  0  0  0  0  0  0  0  0  0  0  0
   42.5650   38.1800   29.0100 O   0  0  0  0  0  0  0  0  0  0  0  0
   40.8180   36.9260   26.6960 C   0  0  0  0  0  0  0  0  0  0  0  0
   32.8880   34.8990   30.8890 C   0  0  0  0  0  0  0  0  0  0  0  0
   41.8740   36.3730   30.2270 C   0  0  0  0  0  0  0  0  0  0  0  0
   39.8660   35.2610   31.2020 C   0  0  0  0  0  0  0  0  0  0  0  0
   39.9060   35.9200   28.8600 C   0  0  0  0  0  0  0  0  0  0  0  0
   39.7360   36.3870   26.0390 N   0  0  0  0  0  0  0  0  0  0  0  0
   33.2630   35.1390   32.3150 C   0  0  0  0  0  0  0  0  0  0  0  0
   36.4290   35.8150   31.1390 N   0  0  0  0  0  0  0  0  0  0  0  0
   37.5720   35.6360   31.9330 C   0  0  0  0  0  0  0  0  0  0  0  0
   41.7690   37.2760   28.9320 C   0  0  0  0  0  0  0  0  0  0  0  0
   38.6860   35.9370   31.0250 C   0  0  0  0  0  0  0  0  0  0  0  0
   44.0620   36.3600   26.9260 C   0  0  0  0  0  0  0  0  0  0  0  0
   40.6420   35.5540   30.0990 C   0  0  0  0  0  0  0  0  0  0  0  0
  3 21  1  0
  4  6  1  0
  4 11  1  0
  5  9  1  0
  5  2  1  0
  6 22  1  0
  7 12  1  0
  8 15  1  0
  8 20  1  0
 11 16  1  0
 11  8  1  0
 15  3  1  0
 15 23  1  0
 17 12  1  0
 17  5  1  0
 17  2  1  0
 18  9  1  0
 18 19  1  0
 20 10  2  0
 20 13  1  0
 21 14  1  0
 21 19  1  0
 22  1  1  0
 23 13  1  0
 23 14  1  0
M  END
$$$$

     RDKit          3D

 10  9  0  0  0  0  0  0  0  0999 V2000
   44.9710   37.6010   27.4910 S   0  0  0  0  0  0  0  0  0  0  0  0
   41.4900   35.1170   28.8670 C   0  0  0  0  0  0  0  0  0  0  0  0
   43.7510   35.4260   29.6170 O   0  0  0  0  0  0  0  0  0  0  0  0
   42.9370   35.5970   28.2880 S   0  0  0  0  0  0  0  0  0  0  0  0
   43.5960   38.2160   28.6970 C   0  0  0  0  0  0  0  0  0  0  0  0
   43.6270   34.5490   27.4580 O   0  0  0  0  0  0  0  0  0  0  0  0
   41.5210   38.1210   29.1260 C   0  0  0  0  0  0  0  0  0  0  0  0
   42.4520   37.2830   28.4230 C   0  0  0  0  0  0  0  0  0  0  0  0
   41.1240   35.0920   30.0580 O   0  0  0  0  0  0  0  0  0  0  0  0
   40.7320   34.7160   28.0070 O   0  0  0  0  0  0  0  0  0  0  0  0
  1  5  1  0
  2  9  1  0
  4  8  1  0
  4  2  1  0
  4  3  2  0
  6  4  2  0
  8  5  1  0
  8  7  1  0
 10  2  2  0
M  END
$$$$

     RDKit          3D

 13 12  0  0  0  0  0  0  0  0999 V2000
   35.7790   32.0210   34.8010 O   0  0  0  0  0  0  0  0  0  0  0  0
   42.0000   35.9660   32.9690 C   0  0  0  0  0  0  0  0  0  0  0  0
   36.2210   32.3000   32.4690 C   0  0  0  0  0  0  0  0  0  0  0  0
   38.5350   32.2150   31.6640 O   0  0  0  0  0  0  0  0  0  0  0  0
   35.4590   31.7010   33.6640 C   0  0  0  0  0  0  0  0  0  0  0  0
   36.7560   35.7210   31.9870 O   0  0  0  0  0  0  0  0  0  0  0  0
   39.8400   35.1570   33.6730 C   0  0  0  0  0  0  0  0  0  0  0  0
   37.8940   33.6040   33.8520 C   0  0  0  0  0  0  0  0  0  0  0  0
   38.5690   34.8150   33.2340 N   0  0  0  0  0  0  0  0  0  0  0  0
   41.0000   34.7980   32.7730 C   0  0  0  0  0  0  0  0  0  0  0  0
   43.3800   35.7770   32.4700 N   0  0  0  0  0  0  0  0  0  0  0  0
   37.6500   32.8550   32.6220 C   0  0  0  0  0  0  0  0  0  0  0  0
   37.9750   34.9080   31.9310 C   0  0  0  0  0  0  0  0  0  0  0  0
  3 12  1  0
  3  5  1  0
  5  1  2  0
  9  7  1  0
  9  8  1  0
 10  2  1  0
 10  7  1  0
 11  2  1  0
 12  4  1  0
 12  8  1  0
 13  6  1  0
 13  9  1  0
M  END
$$$$

     RDKit          3D

 31 32  0  0  0  0  0  0  0  0999 V2000
   45.3470   39.9730   27.7710 C   0  0  0  0  0  0  0  0  0  0  0  0
   46.0120   40.0580   29.1980 C   0  0  0  0  0  0  0  0  0  0  0  0
   39.7780   37.0260   30.6530 C   0  0  0  0  0  0  0  0  0  0  0  0
   43.6280   38.2540   28.3050 C   0  0  0  0  0  0  0  0  0  0  0  0
   47.0320   38.9660   29.3870 C   0  0  0  0  0  0  0  0  0  0  0  0
   35.5330   35.0030   31.6760 N   0  0  0  0  0  0  0  0  0  0  0  0
   33.8850   30.4200   33.5120 C   0  0  0  0  0  0  0  0  0  0  0  0
   43.8880   39.6830   27.7540 C   0  0  0  0  0  0  0  0  0  0  0  0
   33.1620   31.4980   33.6930 N   0  0  0  0  0  0  0  0  0  0  0  0
   41.7850   36.1230   30.2550 C   0  0  0  0  0  0  0  0  0  0  0  0
   33.0500   29.3890   33.9830 C   0  0  0  0  0  0  0  0  0  0  0  0
   41.4110   37.5550   27.9540 O   0  0  0  0  0  0  0  0  0  0  0  0
   45.9650   40.4740   26.5360 C   0  0  0  0  0  0  0  0  0  0  0  0
   38.4060   37.0040   30.6130 C   0  0  0  0  0  0  0  0  0  0  0  0
   36.2690   36.0810   31.3010 C   0  0  0  0  0  0  0  0  0  0  0  0
   42.2310   35.1800   27.1790 O   0  0  0  0  0  0  0  0  0  0  0  0
   39.8450   34.7330   31.2260 C   0  0  0  0  0  0  0  0  0  0  0  0
   42.2380   34.0350   29.4390 O   0  0  0  0  0  0  0  0  0  0  0  0
   38.4930   34.7890   31.4980 C   0  0  0  0  0  0  0  0  0  0  0  0
   34.3730   34.6480   32.2660 C   0  0  0  0  0  0  0  0  0  0  0  0
   33.2410   35.2770   31.9940 N   0  0  0  0  0  0  0  0  0  0  0  0
   43.0230   35.8180   28.1590 C   0  0  0  0  0  0  0  0  0  0  0  0
   37.8230   35.9580   31.2770 C   0  0  0  0  0  0  0  0  0  0  0  0
   33.0580   33.0590   33.4680 C   0  0  0  0  0  0  0  0  0  0  0  0
   32.0230   30.9020   34.1940 C   0  0  0  0  0  0  0  0  0  0  0  0
   34.4200   33.4510   33.1080 C   0  0  0  0  0  0  0  0  0  0  0  0
   40.4240   35.8290   30.7380 N   0  0  0  0  0  0  0  0  0  0  0  0
   42.6430   37.2600   28.2170 C   0  0  0  0  0  0  0  0  0  0  0  0
   32.1500   29.7930   34.7630 N   0  0  0  0  0  0  0  0  0  0  0  0
   42.5200   35.3880   29.5350 C   0  0  0  0  0  0  0  0  0  0  0  0
   33.1360   36.4840   31.2000 C   0  0  0  0  0  0  0  0  0  0  0  0
  1 13  1  0
  1  2  1  0
  2  5  1  0
  3 27  1  0
  6 20  1  0
  7  9  1  0
  7 11  1  0
  8  1  1  0
  8  4  1  0
  9 25  1  0
 10 27  1  0
 11 29  1  0
 14  3  1  0
 14 23  2  0
 15  6  1  0
 17 19  2  0
 20 26  1  0
 21 20  2  3
 22 16  1  0
 22 28  1  0
 22 30  1  0
 23 15  1  0
 23 19  1  0
 24  9  1  0
 25 29  1  0
 26 24  1  0
 27 17  1  0
 28 12  1  0
 28  4  1  0
 30 18  1  0
 30 10  1  0
 31 21  1  0
M  END
$$$$

     RDKit          3D

 10 10  0  0  0  0  0  0  0  0999 V2000
   40.1270   36.1570   29.9810 C   0  0  0  0  0  0  0  0  0  0  0  0
   41.9260   34.5740   30.0140 O   0  0  0  0  0  0  0  0  0  0  0  0
   38.7780   36.5110   30.1560 O   0  0  0  0  0  0  0  0  0  0  0  0
   42.9140   35.5590   30.4130 C   0  0  0  0  0  0  0  0  0  0  0  0
   43.2390   38.0940   30.1890 O   0  0  0  0  0  0  0  0  0  0  0  0
   40.7790   38.4920   29.4170 O   0  0  0  0  0  0  0  0  0  0  0  0
   40.5300   34.7720   30.4170 C   0  0  0  0  0  0  0  0  0  0  0  0
   42.4660   36.9980   30.2480 C   0  0  0  0  0  0  0  0  0  0  0  0
   40.9930   37.4360   30.3310 C   0  0  0  0  0  0  0  0  0  0  0  0
   44.1580   35.1110   29.7390 C   0  0  0  0  0  0  0  0  0  0  0  0
  1  3  1  0
  1  9  1  0
  1  7  1  0
  2  4  1  0
  2  7  1  0
  4 10  1  0
  8  5  1  0
  8  9  1  0
  8  4  1  0
  9  6  1  0
M  END
$$$$

     RDKit          3D

 12 13  0  0  0  0  0  0  0  0999 V2000
   39.2200   37.9120   29.4970 O   0  0  0  0  0  0  0  0  0  0  0  0
   40.9950   35.0580   32.2190 C   0  0  0  0  0  0  0  0  0  0  0  0
   41.6270   36.2180   30.3210 C   0  0  0  0  0  0  0  0  0  0  0  0
   43.2980   35.6020   27.5730 C   0  0  0  0  0  0  0  0  0  0  0  0
   40.6870   36.4960   32.2120 O   0  0  0  0  0  0  0  0  0  0  0  0
   42.1250   36.4330   28.1840 C   0  0  0  0  0  0  0  0  0  0  0  0
   40.2460   34.4560   31.0560 C   0  0  0  0  0  0  0  0  0  0  0  0
   40.6300   35.2220   29.8210 C   0  0  0  0  0  0  0  0  0  0  0  0
   40.6490   37.0570   30.9930 C   0  0  0  0  0  0  0  0  0  0  0  0
   40.9810   35.4110   28.4000 C   0  0  0  0  0  0  0  0  0  0  0  0
   42.5840   36.9290   29.5460 C   0  0  0  0  0  0  0  0  0  0  0  0
   40.0160   38.2640   30.5510 C   0  0  0  0  0  0  0  0  0  0  0  0
  1 12  1  0
  3 11  1  0
  3  9  1  0
  5  2  1  0
  6  4  1  0
  6 10  1  0
  6 11  1  0
  7  2  1  0
  8 10  1  0
  8  3  1  0
  8  7  1  0
  9 12  1  0
  9  5  1  0
M  END
$$$$

     RDKit          3D

 11 10  0  0  0  0  0  0  0  0999 V2000
   43.8950   39.6580   30.2710 O   0  0  0  0  0  0  0  0  0  0  0  0
   40.0980   38.5090   29.4730 N   0  0  0  0  0  0  0  0  0  0  0  0
   43.5960   34.6670   29.9550 O   0  0  0  0  0  0  0  0  0  0  0  0
   41.1860   37.6460   29.0400 C   0  0  0  0  0  0  0  0  0  0  0  0
   42.4100   37.8310   29.8730 C   0  0  0  0  0  0  0  0  0  0  0  0
   41.6390   33.8870   30.7270 N   0  0  0  0  0  0  0  0  0  0  0  0
   42.6570   37.0860   30.8260 O   0  0  0  0  0  0  0  0  0  0  0  0
   43.2830   38.9690   29.5140 C   0  0  0  0  0  0  0  0  0  0  0  0
   42.3530   34.4990   29.7170 C   0  0  0  0  0  0  0  0  0  0  0  0
   41.7530   35.2690   28.7030 N   0  0  0  0  0  0  0  0  0  0  0  0
   40.6920   36.1640   29.1440 C   0  0  0  0  0  0  0  0  0  0  0  0
  4 11  1  0
  4  2  1  0
  4  5  1  0
  5  7  2  0
  8  5  1  0
  8  1  2  0
  9  3  2  0
  9  6  1  0
 10 11  1  0
 10  9  1  0
M  END
$$$$

     RDKit          3D

 10  9  0  0  0  0  0  0  0  0999 V2000
   42.3350   34.2970   29.5480 O   0  0  0  0  0  0  0  0  0  0  0  0
   43.6130   37.1430   30.1510 O   0  0  0  0  0  0  0  0  0  0  0  0
   40.7760   35.4660   28.7100 O   0  0  0  0  0  0  0  0  0  0  0  0
   43.1420   38.7460   27.9040 C   0  0  0  0  0  0  0  0  0  0  0  0
   41.5160   37.7140   29.2890 C   0  0  0  0  0  0  0  0  0  0  0  0
   41.9340   35.3950   29.2540 C   0  0  0  0  0  0  0  0  0  0  0  0
   42.6770   36.7280   29.3900 C   0  0  0  0  0  0  0  0  0  0  0  0
   41.6210   38.5300   28.1040 C   0  0  0  0  0  0  0  0  0  0  0  0
   43.1180   39.1540   26.7510 O   0  0  0  0  0  0  0  0  0  0  0  0
   43.8350   39.7570   28.9370 C   0  0  0  0  0  0  0  0  0  0  0  0
  3  6  2  0
  4  8  1  0
  4 10  1  0
  5  7  1  0
  6  7  1  0
  6  1  1  0
  7  2  2  0
  8  5  1  0
  9  4  1  0
M  END
$$$$

     RDKit          3D

 10 10  0  0  0  0  0  0  0  0999 V2000
   41.9130   33.7120   30.6830 O   0  0  0  0  0  0  0  0  0  0  0  0
   42.6730   35.9030   29.8820 O   0  0  0  0  0  0  0  0  0  0  0  0
   39.2140   33.3860   31.4900 O   0  0  0  0  0  0  0  0  0  0  0  0
   40.6420   37.0610   30.3400 C   0  0  0  0  0  0  0  0  0  0  0  0
   39.3460   36.9520   30.8270 C   0  0  0  0  0  0  0  0  0  0  0  0
   41.6710   36.0640   30.8450 C   0  0  0  0  0  0  0  0  0  0  0  0
   41.0370   34.7270   31.0740 C   0  0  0  0  0  0  0  0  0  0  0  0
   39.6360   34.5490   31.2310 C   0  0  0  0  0  0  0  0  0  0  0  0
   38.8340   35.7090   31.1600 C   0  0  0  0  0  0  0  0  0  0  0  0
   41.0610   38.2170   29.8940 O   0  0  0  0  0  0  0  0  0  0  0  0
  4 10  1  0
  4  5  1  0
  4  6  1  0
  5  9  2  0
  6  2  1  0
  6  7  1  0
  7  1  1  0
  7  8  1  0
  8  3  2  0
  9  8  1  0
M  END
$$$$

     RDKit          3D

  8  7  0  0  0  0  0  0  0  0999 V2000
   41.6450   35.4640   30.8910 C   0  0  0  0  0  0  0  0  0  0  0  0
   40.4040   33.5450   30.0090 O   0  0  0  0  0  0  0  0  0  0  0  0
   40.4820   34.6920   30.0760 C   0  0  0  0  0  0  0  0  0  0  0  0
   41.9080   36.5860   28.7090 N   0  0  0  0  0  0  0  0  0  0  0  0
   42.8760   37.3620   27.9740 C   0  0  0  0  0  0  0  0  0  0  0  0
   42.5500   36.0930   29.9140 C   0  0  0  0  0  0  0  0  0  0  0  0
   39.3790   35.7130   29.9380 O   0  0  0  0  0  0  0  0  0  0  0  0
   43.5440   35.1900   29.4830 O   0  0  0  0  0  0  0  0  0  0  0  0
  2  3  1  0
  3  1  1  0
  4  6  1  0
  5  4  1  0
  6  8  1  0
  6  1  1  0
  7  3  2  0
M  END
$$$$
