
     RDKit          3D

 15 16  0  0  0  0  0  0  0  0999 V2000
   39.6740   35.3070   30.7240 C   0  0  0  0  0  0  0  0  0  0  0  0
   41.6430   36.2220   30.7910 N   0  0  0  0  0  0  0  0  0  0  0  0
   41.0850   34.9130   30.8920 C   0  0  0  0  0  0  0  0  0  0  0  0
   43.2310   35.1450   29.5430 N   0  0  0  0  0  0  0  0  0  0  0  0
   37.1340   33.3580   32.4260 C   0  0  0  0  0  0  0  0  0  0  0  0
   38.3810   33.7750   31.9840 C   0  0  0  0  0  0  0  0  0  0  0  0
   42.0920   34.8110   28.7090 C   0  0  0  0  0  0  0  0  0  0  0  0
   38.4080   34.8490   31.0930 C   0  0  0  0  0  0  0  0  0  0  0  0
   41.1360   34.0870   29.6230 C   0  0  0  0  0  0  0  0  0  0  0  0
   36.0410   35.0370   31.1260 C   0  0  0  0  0  0  0  0  0  0  0  0
   39.5660   36.5600   29.9700 O   0  0  0  0  0  0  0  0  0  0  0  0
   42.9500   36.2380   30.3240 C   0  0  0  0  0  0  0  0  0  0  0  0
   36.0120   33.9450   31.9650 N   0  0  0  0  0  0  0  0  0  0  0  0
   43.6040   37.0880   30.7280 O   0  0  0  0  0  0  0  0  0  0  0  0
   37.2560   35.4790   30.6260 C   0  0  0  0  0  0  0  0  0  0  0  0
  1 11  1  0
  1  8  1  0
  2  3  1  0
  3  1  1  0
  4 12  1  0
  6  5  1  0
  7  4  1  0
  7  9  1  0
  8  6  2  0
  9  3  1  0
 10 13  1  0
 12 14  2  0
 12  2  1  0
 13  5  2  0
 15  8  1  0
 15 10  2  0
M  END
$$$$

     RDKit          3D

 10 11  0  0  0  0  0  0  0  0999 V2000
   39.6470   37.9990   30.1660 C   0  0  0  0  0  0  0  0  0  0  0  0
   42.9910   38.9950   29.2320 O   0  0  0  0  0  0  0  0  0  0  0  0
   40.9220   34.5050   28.8610 C   0  0  0  0  0  0  0  0  0  0  0  0
   41.9040   36.8880   28.7210 C   0  0  0  0  0  0  0  0  0  0  0  0
   40.7860   38.8330   29.8340 C   0  0  0  0  0  0  0  0  0  0  0  0
   39.5230   36.9610   29.0590 O   0  0  0  0  0  0  0  0  0  0  0  0
   42.1460   37.9990   29.7430 C   0  0  0  0  0  0  0  0  0  0  0  0
   42.8780   36.6980   29.7970 N   0  0  0  0  0  0  0  0  0  0  0  0
   40.5770   35.9870   28.9700 C   0  0  0  0  0  0  0  0  0  0  0  0
   40.7450   33.6950   29.7100 O   0  0  0  0  0  0  0  0  0  0  0  0
  3 10  2  0
  4  9  1  0
  4  7  1  0
  4  8  1  0
  5  1  1  0
  6  1  1  0
  7  2  1  0
  7  8  1  0
  7  5  1  0
  9  3  1  0
  9  6  1  0
M  END
$$$$

     RDKit          3D

 17 18  0  0  0  0  0  0  0  0999 V2000
   36.1770   27.5230   31.0510 C   0  0  0  0  0  0  0  0  0  0  0  0
   34.9700   34.3930   30.8500 C   0  0  0  0  0  0  0  0  0  0  0  0
   34.9260   36.3950   29.0250 C   0  0  0  0  0  0  0  0  0  0  0  0
   33.8460   28.9310   31.7470 O   0  0  0  0  0  0  0  0  0  0  0  0
   36.1280   28.9740   31.0900 C   0  0  0  0  0  0  0  0  0  0  0  0
   35.0850   36.8110   31.2900 O   0  0  0  0  0  0  0  0  0  0  0  0
   38.1030   35.4160   30.3630 C   0  0  0  0  0  0  0  0  0  0  0  0
   35.4710   35.7930   30.4470 C   0  0  0  0  0  0  0  0  0  0  0  0
   36.5640   26.8530   32.3160 C   0  0  0  0  0  0  0  0  0  0  0  0
   34.9570   31.1970   31.2940 C   0  0  0  0  0  0  0  0  0  0  0  0
   38.8810   34.1840   30.5430 C   0  0  0  0  0  0  0  0  0  0  0  0
   34.7700   29.6580   30.9340 C   0  0  0  0  0  0  0  0  0  0  0  0
   35.8390   33.2570   31.1250 C   0  0  0  0  0  0  0  0  0  0  0  0
   35.3800   32.0070   31.5240 C   0  0  0  0  0  0  0  0  0  0  0  0
   37.7710   36.6360   30.1370 C   0  0  0  0  0  0  0  0  0  0  0  0
   36.9280   35.6450   30.3660 N   0  0  0  0  0  0  0  0  0  0  0  0
   37.5720   33.1200   31.1250 S   0  0  0  0  0  0  0  0  0  0  0  0
  1  5  1  0
  1  9  1  0
  2 13  2  0
  7 15  1  0
  7 16  1  0
  7 11  1  0
  8  3  1  0
  8  2  1  0
  8  6  1  0
 10 14  1  0
 11 17  1  0
 12  5  1  0
 12 10  1  0
 12  4  1  0
 13 17  1  0
 13 14  1  0
 16 15  1  0
 16  8  1  0
M  END
$$$$

     RDKit          3D

 11 11  0  0  0  0  0  0  0  0999 V2000
   38.6020   35.9100   30.2870 C   0  0  0  0  0  0  0  0  0  0  0  0
   39.6640   34.8810   30.0080 C   0  0  0  0  0  0  0  0  0  0  0  0
   37.9430   36.5770   29.1200 C   0  0  0  0  0  0  0  0  0  0  0  0
   37.5650   35.3960   31.1150 O   0  0  0  0  0  0  0  0  0  0  0  0
   35.6570   37.1720   28.9090 O   0  0  0  0  0  0  0  0  0  0  0  0
   40.9260   33.0020   30.0070 O   0  0  0  0  0  0  0  0  0  0  0  0
   42.0030   35.6100   29.6500 N   0  0  0  0  0  0  0  0  0  0  0  0
   36.4860   36.5910   29.5370 C   0  0  0  0  0  0  0  0  0  0  0  0
   39.9970   33.8480   30.7070 C   0  0  0  0  0  0  0  0  0  0  0  0
   36.2860   35.9370   30.8100 C   0  0  0  0  0  0  0  0  0  0  0  0
   40.7300   35.5450   29.0490 C   0  0  0  0  0  0  0  0  0  0  0  0
  1  2  1  0
  1  4  1  0
  2 11  1  0
  2  9  1  0
  3  8  1  0
  3  1  1  0
  5  8  2  0
  6  9  1  0
  8 10  1  0
 10  4  1  0
 11  7  1  0
M  END
$$$$

     RDKit          3D

 11 10  0  0  0  0  0  0  0  0999 V2000
   42.3520   38.7600   28.7040 O   0  0  0  0  0  0  0  0  0  0  0  0
   38.8810   34.4140   29.2690 O   0  0  0  0  0  0  0  0  0  0  0  0
   40.0930   36.3920   29.4700 C   0  0  0  0  0  0  0  0  0  0  0  0
   39.9110   38.4890   28.4740 C   0  0  0  0  0  0  0  0  0  0  0  0
   39.9530   34.9480   29.3560 C   0  0  0  0  0  0  0  0  0  0  0  0
   41.0150   38.8400   26.2990 O   0  0  0  0  0  0  0  0  0  0  0  0
   41.0430   34.1540   29.2900 O   0  0  0  0  0  0  0  0  0  0  0  0
   41.2160   38.6180   27.7070 C   0  0  0  0  0  0  0  0  0  0  0  0
   40.7490   32.7010   29.3730 C   0  0  0  0  0  0  0  0  0  0  0  0
   40.6610   37.0290   30.4290 O   0  0  0  0  0  0  0  0  0  0  0  0
   39.5840   37.0830   28.4480 O   0  0  0  0  0  0  0  0  0  0  0  0
  2  5  2  0
  3 10  2  0
  5  3  1  0
  6  8  2  0
  7  5  1  0
  7  9  1  0
  8  4  1  0
  8  1  1  0
 11  4  1  0
 11  3  1  0
M  END
$$$$

     RDKit          3D

 19 20  0  0  0  0  0  0  0  0999 V2000
   42.4760   35.4970   30.1860 C   0  0  0  0  0  0  0  0  0  0  0  0
   36.0090   37.7120   29.3550 O   0  0  0  0  0  0  0  0  0  0  0  0
   39.0490   34.7190   30.9290 N   0  0  0  0  0  0  0  0  0  0  0  0
   37.7120   34.8440   30.8400 C   0  0  0  0  0  0  0  0  0  0  0  0
   37.4800   36.0440   30.1040 C   0  0  0  0  0  0  0  0  0  0  0  0
   41.6880   34.0290   29.4630 S   0  0  0  0  0  0  0  0  0  0  0  0
   39.5690   35.8300   30.3360 N   0  0  0  0  0  0  0  0  0  0  0  0
   36.2340   36.4950   29.8600 C   0  0  0  0  0  0  0  0  0  0  0  0
   35.3030   34.4360   30.7930 C   0  0  0  0  0  0  0  0  0  0  0  0
   36.7410   32.8610   31.7360 F   0  0  0  0  0  0  0  0  0  0  0  0
   33.8270   36.0230   29.7570 C   0  0  0  0  0  0  0  0  0  0  0  0
   44.3560   36.3270   28.1810 O   0  0  0  0  0  0  0  0  0  0  0  0
   43.8690   35.6400   30.2830 C   0  0  0  0  0  0  0  0  0  0  0  0
   44.7750   36.3630   29.5940 C   0  0  0  0  0  0  0  0  0  0  0  0
   35.1230   35.6760   30.1420 C   0  0  0  0  0  0  0  0  0  0  0  0
   40.5800   36.8410   30.6750 C   0  0  0  0  0  0  0  0  0  0  0  0
   36.5750   34.0280   31.2380 C   0  0  0  0  0  0  0  0  0  0  0  0
   41.7750   36.8110   29.7570 C   0  0  0  0  0  0  0  0  0  0  0  0
   38.6310   36.5650   29.6690 N   0  0  0  0  0  0  0  0  0  0  0  0
  1  6  1  0
  1 13  1  0
  2  8  1  0
  4  3  1  0
  4 17  1  0
  5  4  2  0
  7 16  1  0
  7  3  1  0
  8  5  1  0
  8 15  2  0
  9 17  2  0
 11 15  1  0
 12 14  1  0
 14 13  1  0
 15  9  1  0
 17 10  1  0
 18  1  1  0
 18 16  1  0
 19  5  1  0
 19  7  1  0
M  END
$$$$

     RDKit          3D

 34 38  0  0  0  0  0  0  0  0999 V2000
   44.1980   37.4580   29.8260 C   0  0  0  0  0  0  0  0  0  0  0  0
   43.5670   36.1970   30.2850 C   0  0  0  0  0  0  0  0  0  0  0  0
   37.1130   30.3030   34.6970 C   0  0  0  0  0  0  0  0  0  0  0  0
   37.3390   32.0720   32.9620 C   0  0  0  0  0  0  0  0  0  0  0  0
   37.9540   33.4740   32.8560 C   0  0  0  0  0  0  0  0  0  0  0  0
   38.9720   36.8290   27.7240 O   0  0  0  0  0  0  0  0  0  0  0  0
   34.7920   28.3820   36.7850 C   0  0  0  0  0  0  0  0  0  0  0  0
   35.5540   29.1130   35.7310 C   0  0  0  0  0  0  0  0  0  0  0  0
   39.6000   34.3140   30.0950 N   0  0  0  0  0  0  0  0  0  0  0  0
   43.6170   35.2650   27.8660 O   0  0  0  0  0  0  0  0  0  0  0  0
   36.6600   37.1600   29.4500 C   0  0  0  0  0  0  0  0  0  0  0  0
   38.8240   36.0530   28.7340 C   0  0  0  0  0  0  0  0  0  0  0  0
   44.3710   37.3760   28.5380 C   0  0  0  0  0  0  0  0  0  0  0  0
   41.8320   36.5130   28.5460 N   0  0  0  0  0  0  0  0  0  0  0  0
   46.2150   38.4480   29.9200 N   0  0  0  0  0  0  0  0  0  0  0  0
   46.2590   38.6080   28.5340 C   0  0  0  0  0  0  0  0  0  0  0  0
   45.1860   38.2170   27.9540 C   0  0  0  0  0  0  0  0  0  0  0  0
   35.5600   28.7940   34.4250 N   0  0  0  0  0  0  0  0  0  0  0  0
   45.1220   38.1870   30.5090 C   0  0  0  0  0  0  0  0  0  0  0  0
   41.5660   34.2400   28.6000 O   0  0  0  0  0  0  0  0  0  0  0  0
   41.0390   35.3410   28.7820 C   0  0  0  0  0  0  0  0  0  0  0  0
   43.3080   36.2860   28.7950 C   0  0  0  0  0  0  0  0  0  0  0  0
   36.3360   34.8340   30.9810 O   0  0  0  0  0  0  0  0  0  0  0  0
   38.3170   33.3990   31.5200 O   0  0  0  0  0  0  0  0  0  0  0  0
   37.4110   35.1120   30.3910 C   0  0  0  0  0  0  0  0  0  0  0  0
   37.2470   31.6810   34.2910 C   0  0  0  0  0  0  0  0  0  0  0  0
   37.6690   36.0800   29.5210 N   0  0  0  0  0  0  0  0  0  0  0  0
   35.3100   36.6570   29.3660 C   0  0  0  0  0  0  0  0  0  0  0  0
   35.9370   37.2350   28.1200 C   0  0  0  0  0  0  0  0  0  0  0  0
   39.7680   35.2860   29.2470 N   0  0  0  0  0  0  0  0  0  0  0  0
   36.2720   29.6730   33.7170 N   0  0  0  0  0  0  0  0  0  0  0  0
   38.5220   34.3370   30.6870 C   0  0  0  0  0  0  0  0  0  0  0  0
   35.4440   28.4480   38.1850 C   0  0  0  0  0  0  0  0  0  0  0  0
   36.3430   30.3520   35.9760 C   0  0  0  0  0  0  0  0  0  0  0  0
  1  2  1  0
  1 19  1  0
  3 26  1  0
  3 34  1  0
  4 26  1  0
  5  4  1  0
  6 12  2  0
  7 33  1  0
  8 34  1  0
  8  7  1  0
  9 32  2  0
 11 27  1  0
 12 30  1  0
 12 27  1  0
 13 17  1  0
 13 22  1  0
 13  1  1  0
 14 21  1  0
 14 22  1  0
 15 19  1  0
 16 15  1  0
 17 16  1  0
 18  8  1  0
 20 21  2  0
 21 30  1  0
 22 10  1  0
 22  2  1  0
 24  5  1  0
 25 32  1  0
 25 23  2  0
 27 25  1  0
 28 11  1  0
 29 28  1  0
 29 11  1  0
 30  9  1  0
 31 18  1  0
 31  3  1  0
 32 24  1  0
M  END
$$$$

     RDKit          3D

 12 12  0  0  0  0  0  0  0  0999 V2000
   41.0500   34.6500   27.9050 O   0  0  0  0  0  0  0  0  0  0  0  0
   38.9670   36.5340   29.0500 O   0  0  0  0  0  0  0  0  0  0  0  0
   39.5690   35.0680   30.6860 C   0  0  0  0  0  0  0  0  0  0  0  0
   39.8320   36.2360   29.9050 C   0  0  0  0  0  0  0  0  0  0  0  0
   36.6360   33.9980   32.6770 C   0  0  0  0  0  0  0  0  0  0  0  0
   38.4080   34.2900   30.9420 C   0  0  0  0  0  0  0  0  0  0  0  0
   36.9180   35.0920   31.2260 S   0  0  0  0  0  0  0  0  0  0  0  0
   41.1310   33.5360   28.9560 S   0  0  0  0  0  0  0  0  0  0  0  0
   36.1290   32.8720   32.3040 C   0  0  0  0  0  0  0  0  0  0  0  0
   35.2000   33.8190   32.8620 N   0  0  0  0  0  0  0  0  0  0  0  0
   40.8910   36.9990   30.1540 O   0  0  0  0  0  0  0  0  0  0  0  0
   40.2830   33.7410   30.4000 C   0  0  0  0  0  0  0  0  0  0  0  0
  1  8  2  0
  2  4  2  0
  3 12  1  0
  3  6  1  0
  4 11  1  0
  4  3  1  0
  5  7  1  0
  5 10  1  0
  6  7  1  0
  8 12  1  0
  9  5  1  0
  9 10  1  0
M  END
$$$$

     RDKit          3D

 22 24  0  0  0  0  0  0  0  0999 V2000
   40.8040   37.3460   28.4430 O   0  0  0  0  0  0  0  0  0  0  0  0
   42.6820   35.5260   27.6370 C   0  0  0  0  0  0  0  0  0  0  0  0
   36.2570   35.9410   30.3790 C   0  0  0  0  0  0  0  0  0  0  0  0
   42.8220   35.5420   29.0950 O   0  0  0  0  0  0  0  0  0  0  0  0
   43.1320   36.8600   29.5470 C   0  0  0  0  0  0  0  0  0  0  0  0
   33.4070   35.3110   32.5630 C   0  0  0  0  0  0  0  0  0  0  0  0
   42.3460   34.2280   27.2480 O   0  0  0  0  0  0  0  0  0  0  0  0
   35.7540   36.8510   29.7840 O   0  0  0  0  0  0  0  0  0  0  0  0
   41.3110   37.1630   26.1680 C   0  0  0  0  0  0  0  0  0  0  0  0
   42.1560   37.5130   30.4940 C   0  0  0  0  0  0  0  0  0  0  0  0
   35.6270   34.8980   31.2630 C   0  0  0  0  0  0  0  0  0  0  0  0
   40.1250   35.5720   31.3480 C   0  0  0  0  0  0  0  0  0  0  0  0
   41.4900   36.5160   27.4970 C   0  0  0  0  0  0  0  0  0  0  0  0
   38.5160   36.5470   29.9150 C   0  0  0  0  0  0  0  0  0  0  0  0
   39.0240   35.8390   28.8240 O   0  0  0  0  0  0  0  0  0  0  0  0
   33.3820   35.1360   31.1640 C   0  0  0  0  0  0  0  0  0  0  0  0
   34.5360   35.5580   31.9280 N   0  0  0  0  0  0  0  0  0  0  0  0
   43.6380   35.8230   26.1020 S   0  0  0  0  0  0  0  0  0  0  0  0
   39.7130   36.8680   30.7140 C   0  0  0  0  0  0  0  0  0  0  0  0
   32.1550   35.4730   31.7520 O   0  0  0  0  0  0  0  0  0  0  0  0
   37.5260   35.7200   30.4540 N   0  0  0  0  0  0  0  0  0  0  0  0
   40.7580   37.5830   29.8900 C   0  0  0  0  0  0  0  0  0  0  0  0
  1 22  1  0
  2 18  1  0
  2  4  1  0
  3 21  1  0
  3 11  1  0
  4  5  1  0
  5 10  1  0
  6 20  1  0
  7  2  1  0
  8  3  2  0
 11 17  1  0
 13  9  1  0
 13  2  1  0
 13  1  1  0
 14 15  1  0
 14 21  1  0
 14 19  1  0
 16 20  1  0
 16 17  1  0
 16  6  1  0
 17  6  1  0
 19 12  1  0
 22 10  1  0
 22 19  1  0
M  END
$$$$

     RDKit          3D

  1  0  0  0  0  0  0  0  0  0999 V2000
  157.6270 -101.3330   32.8380 Cl  0  0  0  0  0  0  0  0  0  0  0  0
M  END
$$$$

     RDKit          3D

 17 18  0  0  0  0  0  0  0  0999 V2000
   39.0750   36.1480   30.0850 C   0  0  0  0  0  0  0  0  0  0  0  0
   37.6650   35.6100   30.4080 C   0  0  0  0  0  0  0  0  0  0  0  0
   41.2590   37.0610   30.3360 C   0  0  0  0  0  0  0  0  0  0  0  0
   40.5210   35.9470   30.2170 C   0  0  0  0  0  0  0  0  0  0  0  0
   41.3550   34.6180   30.2520 C   0  0  0  0  0  0  0  0  0  0  0  0
   33.6900   34.9370   30.5100 N   0  0  0  0  0  0  0  0  0  0  0  0
   38.7890   37.3740   29.4310 C   0  0  0  0  0  0  0  0  0  0  0  0
   35.0720   35.1440   30.6290 C   0  0  0  0  0  0  0  0  0  0  0  0
   40.8800   38.2170   29.5110 C   0  0  0  0  0  0  0  0  0  0  0  0
   39.6040   38.3890   29.1460 C   0  0  0  0  0  0  0  0  0  0  0  0
   41.3400   33.7900   29.3170 O   0  0  0  0  0  0  0  0  0  0  0  0
   36.7030   36.5430   30.0900 C   0  0  0  0  0  0  0  0  0  0  0  0
   35.4710   36.3800   30.2290 N   0  0  0  0  0  0  0  0  0  0  0  0
   41.7970   39.2870   29.5810 N   0  0  0  0  0  0  0  0  0  0  0  0
   37.3900   34.3950   30.9250 C   0  0  0  0  0  0  0  0  0  0  0  0
   42.1290   34.4830   31.2580 O   0  0  0  0  0  0  0  0  0  0  0  0
   35.9940   34.1740   31.1970 C   0  0  0  0  0  0  0  0  0  0  0  0
  1  4  1  0
  1  2  1  0
  2 15  1  0
  4  5  1  0
  4  3  2  0
  5 16  1  0
  6  8  1  0
  7  1  2  0
  8 17  1  0
  9 14  1  0
  9  3  1  0
 10  7  1  0
 10  9  2  0
 11  5  2  0
 12 13  1  0
 12  2  2  0
 13  8  2  0
 15 17  2  0
M  END
$$$$

     RDKit          3D

  4  3  0  0  0  0  0  0  0  0999 V2000
   38.7430   30.7310   31.6710 O   0  0  0  0  0  0  0  0  0  0  0  0
   36.7880   30.9180   30.6880 O   0  0  0  0  0  0  0  0  0  0  0  0
   38.5110   31.4360   29.5210 O   0  0  0  0  0  0  0  0  0  0  0  0
   38.0270   31.1300   30.6510 C   0  0  0  0  0  0  0  0  0  0  0  0
  3  4  2  0
  4  2  1  0
  4  1  1  0
M  END
$$$$

     RDKit          3D

 12 11  0  0  0  0  0  0  0  0999 V2000
   42.1500   36.7680   25.4860 O   0  0  0  0  0  0  0  0  0  0  0  0
   43.3420   38.2240   30.6550 C   0  0  0  0  0  0  0  0  0  0  0  0
   41.3670   34.6590   25.9730 O   0  0  0  0  0  0  0  0  0  0  0  0
   42.2850   36.6570   28.4880 C   0  0  0  0  0  0  0  0  0  0  0  0
   39.6810   36.6420   25.4700 O   0  0  0  0  0  0  0  0  0  0  0  0
   43.1630   38.7020   32.5880 S   0  0  0  0  0  0  0  0  0  0  0  0
   43.0860   35.5470   28.3950 O   0  0  0  0  0  0  0  0  0  0  0  0
   40.8530   36.0710   26.2580 P   0  0  0  0  0  0  0  0  0  0  0  0
   40.9380   36.6440   27.8160 C   0  0  0  0  0  0  0  0  0  0  0  0
   41.3700   37.2030   30.5960 O   0  0  0  0  0  0  0  0  0  0  0  0
   42.9840   39.3820   29.8650 O   0  0  0  0  0  0  0  0  0  0  0  0
   42.5460   37.1090   29.9770 C   0  0  0  0  0  0  0  0  0  0  0  0
  1  8  1  0
  2 11  1  0
  2  6  1  0
  3  8  1  0
  4  7  1  0
  4 12  1  0
  5  8  2  0
  8  9  1  0
  9  4  1  0
 12 10  1  0
 12  2  1  0
M  END
$$$$

     RDKit          3D

  9  8  0  0  0  0  0  0  0  0999 V2000
   39.1810   35.4590   31.3550 C   0  0  0  0  0  0  0  0  0  0  0  0
   42.3110   37.2030   30.5250 C   0  0  0  0  0  0  0  0  0  0  0  0
   40.5150   34.0540   29.4230 O   0  0  0  0  0  0  0  0  0  0  0  0
   37.1470   34.1930   31.5460 O   0  0  0  0  0  0  0  0  0  0  0  0
   41.4960   36.0340   30.3050 N   0  0  0  0  0  0  0  0  0  0  0  0
   40.1820   36.4000   30.9110 C   0  0  0  0  0  0  0  0  0  0  0  0
   41.6980   34.6730   29.7900 C   0  0  0  0  0  0  0  0  0  0  0  0
   38.3660   34.1900   31.5800 C   0  0  0  0  0  0  0  0  0  0  0  0
   39.0450   32.9700   31.6790 O   0  0  0  0  0  0  0  0  0  0  0  0
  1  8  2  0
  3  7  1  0
  4  8  2  0
  5  2  1  0
  5  6  1  0
  6  1  2  0
  7  5  1  0
  8  9  1  0
M  END
$$$$

     RDKit          3D

  5  4  0  0  0  0  0  0  0  0999 V2000
   38.2150   35.5540   29.8510 C   0  0  0  0  0  0  0  0  0  0  0  0
   38.8980   36.6200   28.9590 O   0  0  0  0  0  0  0  0  0  0  0  0
   36.9400   35.7020   30.2450 O   0  0  0  0  0  0  0  0  0  0  0  0
   38.3210   32.8720   30.7500 Cl  0  0  0  0  0  0  0  0  0  0  0  0
   39.0490   34.2490   29.8410 C   0  0  0  0  0  0  0  0  0  0  0  0
  1  3  1  0
  2  1  2  0
  5  1  1  0
  5  4  1  0
M  END
$$$$

     RDKit          3D

 11 11  0  0  0  0  0  0  0  0999 V2000
   41.0310   34.0300   30.0070 N   0  0  0  0  0  0  0  0  0  0  0  0
   39.3980   37.9410   28.5680 O   0  0  0  0  0  0  0  0  0  0  0  0
   41.9970   37.2720   29.4450 C   0  0  0  0  0  0  0  0  0  0  0  0
   42.0720   38.5010   28.5630 C   0  0  0  0  0  0  0  0  0  0  0  0
   37.5180   37.1170   29.0970 N   0  0  0  0  0  0  0  0  0  0  0  0
   37.0610   36.0450   29.7190 N   0  0  0  0  0  0  0  0  0  0  0  0
   38.8440   37.0350   29.2140 C   0  0  0  0  0  0  0  0  0  0  0  0
   39.2670   35.7610   29.5990 C   0  0  0  0  0  0  0  0  0  0  0  0
   40.5590   35.3560   29.7550 C   0  0  0  0  0  0  0  0  0  0  0  0
   37.9900   35.2240   30.0240 C   0  0  0  0  0  0  0  0  0  0  0  0
   41.7360   36.0950   29.3710 N   0  0  0  0  0  0  0  0  0  0  0  0
  2  7  2  0
  4  3  1  0
  5  7  1  0
  5  6  1  0
  6 10  1  0
  7  8  1  0
  8  9  1  0
  8 10  1  0
  9  1  2  0
 11  3  1  0
 11  9  1  0
M  END
$$$$

     RDKit          3D

 11 11  0  0  0  0  0  0  0  0999 V2000
   37.4430   30.2740   32.8920 C   0  0  0  0  0  0  0  0  0  0  0  0
   40.5490   37.1530   29.5700 C   0  0  0  0  0  0  0  0  0  0  0  0
   36.6010   32.7350   33.3560 O   0  0  0  0  0  0  0  0  0  0  0  0
   39.3690   37.7250   28.9400 C   0  0  0  0  0  0  0  0  0  0  0  0
   39.0670   33.9700   31.1050 C   0  0  0  0  0  0  0  0  0  0  0  0
   37.5890   33.7590   31.4400 C   0  0  0  0  0  0  0  0  0  0  0  0
   37.5870   31.3530   31.7690 N   0  0  0  0  0  0  0  0  0  0  0  0
   40.5060   35.8300   30.2110 C   0  0  0  0  0  0  0  0  0  0  0  0
   39.1760   35.3970   30.6880 C   0  0  0  0  0  0  0  0  0  0  0  0
   40.7470   38.2060   28.5740 C   0  0  0  0  0  0  0  0  0  0  0  0
   37.2170   32.5890   32.2630 C   0  0  0  0  0  0  0  0  0  0  0  0
  2  8  1  0
  4  2  1  0
  5  6  1  0
  6 11  1  0
  7 11  1  0
  7  1  1  0
  8  9  2  3
  9  5  1  0
 10  4  1  0
 10  2  1  0
 11  3  2  0
M  END
$$$$

     RDKit          3D

 14 13  0  0  0  0  0  0  0  0999 V2000
   38.0520   36.3340   29.6930 C   0  0  0  0  0  0  0  0  0  0  0  0
   40.0200   35.1030   28.5680 C   0  0  0  0  0  0  0  0  0  0  0  0
   34.2100   33.8390   31.4460 C   0  0  0  0  0  0  0  0  0  0  0  0
   32.7900   34.1150   31.8440 C   0  0  0  0  0  0  0  0  0  0  0  0
   36.4740   34.9200   31.4910 C   0  0  0  0  0  0  0  0  0  0  0  0
   40.5620   37.4080   28.2350 N   0  0  0  0  0  0  0  0  0  0  0  0
   34.9900   35.1350   31.3010 C   0  0  0  0  0  0  0  0  0  0  0  0
   37.8120   35.0640   30.9210 S   0  0  0  0  0  0  0  0  0  0  0  0
   39.6050   36.5010   29.0850 C   0  0  0  0  0  0  0  0  0  0  0  0
   33.3940   32.6140   33.4640 C   0  0  0  0  0  0  0  0  0  0  0  0
   40.2880   32.6150   29.1180 N   0  0  0  0  0  0  0  0  0  0  0  0
   32.2370   33.5330   33.0650 C   0  0  0  0  0  0  0  0  0  0  0  0
   39.7420   33.8950   29.4720 C   0  0  0  0  0  0  0  0  0  0  0  0
   33.7880   31.9450   34.5820 N   0  0  0  0  0  0  0  0  0  0  0  0
  1  8  2  3
  2  9  1  0
  2 13  2  3
  3  4  1  0
  4 12  1  0
  7  3  1  0
  7  5  1  0
  8  5  1  0
  9  6  1  0
  9  1  1  0
 10 14  1  0
 11 13  1  0
 12 10  1  0
M  END
$$$$

     RDKit          3D

 13 13  0  0  0  0  0  0  0  0999 V2000
   39.7300   35.6070   30.9950 C   0  0  0  0  0  0  0  0  0  0  0  0
   35.3680   37.1730   28.0330 N   0  0  0  0  0  0  0  0  0  0  0  0
   38.6880   34.9190   30.5660 N   0  0  0  0  0  0  0  0  0  0  0  0
   36.3310   35.1250   30.9160 C   0  0  0  0  0  0  0  0  0  0  0  0
   36.4850   36.0470   29.7880 C   0  0  0  0  0  0  0  0  0  0  0  0
   40.9010   35.0000   30.4570 C   0  0  0  0  0  0  0  0  0  0  0  0
   34.0480   35.9170   29.5370 N   0  0  0  0  0  0  0  0  0  0  0  0
   37.6190   34.7540   31.5210 C   0  0  0  0  0  0  0  0  0  0  0  0
   40.4000   34.1240   29.4000 C   0  0  0  0  0  0  0  0  0  0  0  0
   35.3680   35.9890   28.7830 C   0  0  0  0  0  0  0  0  0  0  0  0
   35.5090   34.7550   31.4260 O   0  0  0  0  0  0  0  0  0  0  0  0
   42.3420   35.4190   30.5300 C   0  0  0  0  0  0  0  0  0  0  0  0
   39.1050   34.5850   29.3290 C   0  0  0  0  0  0  0  0  0  0  0  0
  2 10  1  0
  3  1  1  0
  3  8  1  0
  4 11  2  0
  4  8  1  0
  5  4  1  0
  6 12  1  0
  6  1  1  0
  9  6  1  0
 10  7  1  0
 10  5  1  0
 13  9  1  0
 13  3  1  0
M  END
$$$$

     RDKit          3D

 15 17  0  0  0  0  0  0  0  0999 V2000
   37.6400   35.1270   30.4430 C   0  0  0  0  0  0  0  0  0  0  0  0
   35.8390   35.1810   31.0050 C   0  0  0  0  0  0  0  0  0  0  0  0
   40.0930   35.7680   29.9180 C   0  0  0  0  0  0  0  0  0  0  0  0
   41.8340   34.8340   31.4650 C   0  0  0  0  0  0  0  0  0  0  0  0
   41.4410   37.2620   31.3410 C   0  0  0  0  0  0  0  0  0  0  0  0
   37.8700   37.9030   29.4770 C   0  0  0  0  0  0  0  0  0  0  0  0
   38.8440   35.9000   30.6800 C   0  0  0  0  0  0  0  0  0  0  0  0
   41.1570   35.9110   30.9370 C   0  0  0  0  0  0  0  0  0  0  0  0
   36.5320   35.9010   30.1930 N   0  0  0  0  0  0  0  0  0  0  0  0
   43.0340   35.1080   32.1620 C   0  0  0  0  0  0  0  0  0  0  0  0
   40.2610   34.3460   29.1260 Cl  0  0  0  0  0  0  0  0  0  0  0  0
   43.3890   36.4080   32.3650 C   0  0  0  0  0  0  0  0  0  0  0  0
   42.5670   37.4860   32.0950 C   0  0  0  0  0  0  0  0  0  0  0  0
   39.0690   36.9330   29.6910 C   0  0  0  0  0  0  0  0  0  0  0  0
   36.5630   37.2360   30.0250 C   0  0  0  0  0  0  0  0  0  0  0  0
  3 11  1  0
  3  7  1  0
  3  8  1  0
  4 10  1  0
  5 13  2  0
  6 15  1  0
  7  1  1  0
  8  5  1  0
  8  4  2  0
  9  1  1  0
  9  2  1  0
 10 12  2  0
 13 12  1  0
 14  6  1  0
 14  3  1  0
 14  7  1  0
 15  9  1  0
M  END
$$$$
