
     RDKit          3D

  8  7  0  0  0  0  0  0  0  0999 V2000
   39.6880   36.3170   31.9320 C   0  0  0  0  0  0  0  0  0  0  0  0
   39.5930   33.8910   32.2590 C   0  0  0  0  0  0  0  0  0  0  0  0
   41.5070   37.8110   31.3130 O   0  0  0  0  0  0  0  0  0  0  0  0
   40.2410   37.5440   31.2080 C   0  0  0  0  0  0  0  0  0  0  0  0
   39.5310   38.4020   30.6990 O   0  0  0  0  0  0  0  0  0  0  0  0
   40.4560   35.1530   32.5160 C   0  0  0  0  0  0  0  0  0  0  0  0
   38.3950   36.2520   32.0620 O   0  0  0  0  0  0  0  0  0  0  0  0
   40.1810   33.0150   31.2720 O   0  0  0  0  0  0  0  0  0  0  0  0
  1  7  1  0
  1  6  1  0
  2  6  1  0
  4  3  1  0
  4  1  1  0
  5  4  2  0
  8  2  1  0
M  END
$$$$

     RDKit          3D

 12 13  0  0  0  0  0  0  0  0999 V2000
   40.5210   37.1970   34.5790 O   0  0  0  0  0  0  0  0  0  0  0  0
   37.9650   34.7490   33.9850 C   0  0  0  0  0  0  0  0  0  0  0  0
   36.3910   34.0120   35.9270 C   0  0  0  0  0  0  0  0  0  0  0  0
   39.1250   35.1060   34.7750 C   0  0  0  0  0  0  0  0  0  0  0  0
   39.4880   33.2250   36.1590 O   0  0  0  0  0  0  0  0  0  0  0  0
   40.0080   35.9730   32.4610 O   0  0  0  0  0  0  0  0  0  0  0  0
   36.5590   34.7450   34.5990 C   0  0  0  0  0  0  0  0  0  0  0  0
   39.3860   34.5850   36.0310 C   0  0  0  0  0  0  0  0  0  0  0  0
   41.6530   35.1380   34.2010 O   0  0  0  0  0  0  0  0  0  0  0  0
   38.5820   33.9390   36.8890 C   0  0  0  0  0  0  0  0  0  0  0  0
   37.2290   34.6000   37.0460 C   0  0  0  0  0  0  0  0  0  0  0  0
   40.4060   35.9020   33.8960 P   0  0  0  0  0  0  0  0  0  0  0  0
  2  7  1  0
  2  4  1  0
  3 11  1  0
  4 12  1  0
  4  8  1  0
  5 10  1  0
  6 12  2  0
  7  3  1  0
  8  5  1  0
  8 10  1  0
 10 11  1  0
 12  9  1  0
 12  1  1  0
M  END
$$$$

     RDKit          3D

  5  5  0  0  0  0  0  0  0  0999 V2000
   43.2570   37.1770   29.2270 C   0  0  0  0  0  0  0  0  0  0  0  0
   43.2010   39.5640   29.9670 C   0  0  0  0  0  0  0  0  0  0  0  0
   41.8470   37.4340   29.4640 C   0  0  0  0  0  0  0  0  0  0  0  0
   42.7100   38.1530   30.2680 C   0  0  0  0  0  0  0  0  0  0  0  0
   40.7380   37.5240   28.9640 O   0  0  0  0  0  0  0  0  0  0  0  0
  1  3  1  0
  1  4  1  0
  3  4  1  0
  4  2  1  0
  5  3  2  0
M  END
$$$$

     RDKit          3D

 10  9  0  0  0  0  0  0  0  0999 V2000
   40.3830   36.0570   36.0610 C   0  0  0  0  0  0  0  0  0  0  0  0
   40.7650   37.9230   32.2690 C   0  0  0  0  0  0  0  0  0  0  0  0
   40.5530   37.2610   36.8490 O   0  0  0  0  0  0  0  0  0  0  0  0
   39.5040   37.6650   31.4610 C   0  0  0  0  0  0  0  0  0  0  0  0
   42.0800   35.9820   31.7320 O   0  0  0  0  0  0  0  0  0  0  0  0
   41.3980   36.6720   32.8210 C   0  0  0  0  0  0  0  0  0  0  0  0
   40.0520   35.9310   34.8450 C   0  0  0  0  0  0  0  0  0  0  0  0
   40.3150   35.9380   33.4000 C   0  0  0  0  0  0  0  0  0  0  0  0
   38.4130   37.8140   32.0100 O   0  0  0  0  0  0  0  0  0  0  0  0
   41.5730   38.8380   31.8920 O   0  0  0  0  0  0  0  0  0  0  0  0
  1  3  1  0
  2  6  1  0
  4  9  2  0
  4  2  1  0
  6  5  1  0
  6  8  1  0
  7  1  1  0
  8  7  1  0
 10  2  2  0
M  END
$$$$

     RDKit          3D

 21 21  0  0  0  0  0  0  0  0999 V2000
   37.5470   28.9000   34.1110 O   0  0  0  0  0  0  0  0  0  0  0  0
   40.8620   36.4340   30.9680 O   0  0  0  0  0  0  0  0  0  0  0  0
   39.6290   36.6610   31.3470 C   0  0  0  0  0  0  0  0  0  0  0  0
   38.9650   35.4400   31.9880 C   0  0  0  0  0  0  0  0  0  0  0  0
   36.7610   36.1550   33.0210 C   0  0  0  0  0  0  0  0  0  0  0  0
   34.1400   35.9840   29.1680 O   0  0  0  0  0  0  0  0  0  0  0  0
   35.0400   36.6740   29.6520 C   0  0  0  0  0  0  0  0  0  0  0  0
   37.0470   30.1700   33.9160 C   0  0  0  0  0  0  0  0  0  0  0  0
   36.0180   36.1670   30.5500 C   0  0  0  0  0  0  0  0  0  0  0  0
   37.3130   32.5830   33.0670 C   0  0  0  0  0  0  0  0  0  0  0  0
   39.8460   38.0830   28.7210 N   0  0  0  0  0  0  0  0  0  0  0  0
   37.9010   35.1220   33.0780 C   0  0  0  0  0  0  0  0  0  0  0  0
   37.5200   33.7870   33.6930 C   0  0  0  0  0  0  0  0  0  0  0  0
   39.0560   37.8470   31.0500 C   0  0  0  0  0  0  0  0  0  0  0  0
   37.8000   31.3030   33.5350 C   0  0  0  0  0  0  0  0  0  0  0  0
   38.7890   38.2250   29.6330 C   0  0  0  0  0  0  0  0  0  0  0  0
   36.4730   38.4340   28.6030 C   0  0  0  0  0  0  0  0  0  0  0  0
   35.8180   35.8820   31.8340 C   0  0  0  0  0  0  0  0  0  0  0  0
   37.5970   38.9950   29.2300 C   0  0  0  0  0  0  0  0  0  0  0  0
   35.3160   37.9550   29.0520 C   0  0  0  0  0  0  0  0  0  0  0  0
   38.7520   38.8340   32.0770 C   0  0  0  0  0  0  0  0  0  0  0  0
  3  2  1  0
  3  4  1  0
  4 12  1  0
  5 12  1  0
  6  7  2  0
  7  9  1  0
  8  1  1  0
  9 18  1  0
 10 15  1  0
 10 13  1  0
 12 13  1  0
 14  3  1  0
 14 21  1  0
 15  8  2  3
 16 11  1  0
 16 14  1  0
 17 20  1  0
 17 19  1  0
 18  5  1  0
 19 16  1  0
 20  7  1  0
M  END
$$$$

     RDKit          3D

 31 33  0  0  0  0  0  0  0  0999 V2000
   43.2230   39.2880   28.7090 N   0  0  0  0  0  0  0  0  0  0  0  0
   37.2480   27.5740   33.8380 N   0  0  0  0  0  0  0  0  0  0  0  0
   36.5290   36.1510   32.6980 C   0  0  0  0  0  0  0  0  0  0  0  0
   37.2890   28.5150   32.7270 C   0  0  0  0  0  0  0  0  0  0  0  0
   36.2100   32.8020   33.1180 C   0  0  0  0  0  0  0  0  0  0  0  0
   44.3130   40.1560   28.2720 C   0  0  0  0  0  0  0  0  0  0  0  0
   35.6760   34.0400   33.6610 C   0  0  0  0  0  0  0  0  0  0  0  0
   35.7140   30.4620   32.9310 C   0  0  0  0  0  0  0  0  0  0  0  0
   42.6620   40.4150   30.6780 C   0  0  0  0  0  0  0  0  0  0  0  0
   44.6030   41.6260   28.7620 C   0  0  0  0  0  0  0  0  0  0  0  0
   43.9920   40.9350   31.1360 C   0  0  0  0  0  0  0  0  0  0  0  0
   37.3920   32.5690   33.8260 O   0  0  0  0  0  0  0  0  0  0  0  0
   35.6140   35.1830   32.9560 C   0  0  0  0  0  0  0  0  0  0  0  0
   43.8890   42.0190   29.8340 O   0  0  0  0  0  0  0  0  0  0  0  0
   37.0190   29.9240   33.1200 C   0  0  0  0  0  0  0  0  0  0  0  0
   36.4100   37.4520   32.2630 C   0  0  0  0  0  0  0  0  0  0  0  0
   34.8820   28.2870   32.1000 C   0  0  0  0  0  0  0  0  0  0  0  0
   38.2190   35.5090   32.6450 S   0  0  0  0  0  0  0  0  0  0  0  0
   37.6580   38.0310   31.9470 C   0  0  0  0  0  0  0  0  0  0  0  0
   35.3130   34.0100   34.8670 O   0  0  0  0  0  0  0  0  0  0  0  0
   40.6530   39.5070   31.8010 C   0  0  0  0  0  0  0  0  0  0  0  0
   34.9230   29.5640   32.4050 C   0  0  0  0  0  0  0  0  0  0  0  0
   40.0650   37.2340   32.4760 C   0  0  0  0  0  0  0  0  0  0  0  0
   38.6890   37.1010   32.3350 C   0  0  0  0  0  0  0  0  0  0  0  0
   43.9280   37.8400   28.3100 C   0  0  0  0  0  0  0  0  0  0  0  0
   40.4670   38.2890   31.7970 N   0  0  0  0  0  0  0  0  0  0  0  0
   41.7050   40.0580   31.6120 N   0  0  0  0  0  0  0  0  0  0  0  0
   43.8310   40.1250   26.7730 O   0  0  0  0  0  0  0  0  0  0  0  0
   36.2280   27.9240   31.6180 C   0  0  0  0  0  0  0  0  0  0  0  0
   35.3830   31.6940   33.4700 N   0  0  0  0  0  0  0  0  0  0  0  0
   42.5520   39.1380   29.8610 C   0  0  0  0  0  0  0  0  0  0  0  0
  1 31  1  0
  3 13  1  0
  4 15  1  0
  4  2  1  0
  5 30  1  0
  5  7  1  0
  5 12  1  0
  6 28  1  0
  6  1  1  0
  6 10  1  0
  7 20  2  0
  8 15  1  0
  8 30  1  0
  9 11  1  0
  9 27  1  0
 10 14  1  0
 13  7  1  0
 14 11  1  0
 16  3  1  0
 17 22  1  0
 18  3  1  0
 19 16  1  0
 19 24  1  0
 22  8  2  0
 24 23  1  0
 24 18  1  0
 25  1  1  0
 26 21  1  0
 26 23  1  0
 27 21  1  0
 29 17  1  0
 29  4  1  0
 31  9  1  0
M  END
$$$$

     RDKit          3D

  9  9  0  0  0  0  0  0  0  0999 V2000
   40.7260   35.7510   31.2440 N   0  0  0  0  0  0  0  0  0  0  0  0
   39.9910   35.2460   32.0990 N   0  0  0  0  0  0  0  0  0  0  0  0
   36.0230   36.8270   32.9520 O   0  0  0  0  0  0  0  0  0  0  0  0
   38.8040   35.7000   32.1820 C   0  0  0  0  0  0  0  0  0  0  0  0
   39.8250   36.5340   30.8610 N   0  0  0  0  0  0  0  0  0  0  0  0
   36.5640   35.8870   33.6190 C   0  0  0  0  0  0  0  0  0  0  0  0
   35.8430   35.2480   34.4420 O   0  0  0  0  0  0  0  0  0  0  0  0
   38.7080   36.6730   31.3650 C   0  0  0  0  0  0  0  0  0  0  0  0
   37.8450   35.2370   33.1620 C   0  0  0  0  0  0  0  0  0  0  0  0
  1  2  1  0
  2  4  1  0
  3  6  2  0
  4  9  1  0
  5  1  2  0
  5  8  1  0
  6  7  1  0
  8  4  2  0
  9  6  1  0
M  END
$$$$

     RDKit          3D

 18 17  0  0  0  0  0  0  0  0999 V2000
   37.2140   34.8170   32.9690 C   0  0  0  0  0  0  0  0  0  0  0  0
   39.1920   37.3710   31.2760 C   0  0  0  0  0  0  0  0  0  0  0  0
   44.0710   39.8630   29.1220 C   0  0  0  0  0  0  0  0  0  0  0  0
   36.2110   31.0210   34.9130 C   0  0  0  0  0  0  0  0  0  0  0  0
   41.3390   38.4220   30.4610 C   0  0  0  0  0  0  0  0  0  0  0  0
   40.7380   37.4150   31.4510 C   0  0  0  0  0  0  0  0  0  0  0  0
   36.5000   37.0740   32.9480 C   0  0  0  0  0  0  0  0  0  0  0  0
   35.0850   35.3060   33.8130 O   0  0  0  0  0  0  0  0  0  0  0  0
   44.0350   38.6090   30.0010 C   0  0  0  0  0  0  0  0  0  0  0  0
   36.0780   34.5680   33.8880 C   0  0  0  0  0  0  0  0  0  0  0  0
   45.9890   41.1710   30.1580 C   0  0  0  0  0  0  0  0  0  0  0  0
   34.7830   32.2630   36.1500 O   0  0  0  0  0  0  0  0  0  0  0  0
   37.2450   36.2530   32.4130 C   0  0  0  0  0  0  0  0  0  0  0  0
   38.4240   36.6630   31.7860 C   0  0  0  0  0  0  0  0  0  0  0  0
   36.2130   33.5230   34.7580 C   0  0  0  0  0  0  0  0  0  0  0  0
   42.7390   38.4060   30.5200 C   0  0  0  0  0  0  0  0  0  0  0  0
   45.4820   40.4040   28.9460 C   0  0  0  0  0  0  0  0  0  0  0  0
   35.5490   32.3490   34.9050 C   0  0  0  0  0  0  0  0  0  0  0  0
  1 10  1  0
  2  6  1  0
  2 14  2  0
  3  9  1  0
  5 16  1  0
  5  6  1  0
  8 10  2  0
  9 16  1  0
 10 15  1  0
 13  7  1  0
 13  1  1  0
 14 13  2  0
 15 18  1  0
 17  3  1  0
 17 11  1  0
 18  4  1  0
 18 12  1  0
M  END
$$$$

     RDKit          3D

 13 13  0  0  0  0  0  0  0  0999 V2000
   40.8450   37.3000   30.3300 C   0  0  0  0  0  0  0  0  0  0  0  0
   37.0120   36.6540   31.6490 C   0  0  0  0  0  0  0  0  0  0  0  0
   37.7770   33.5900   33.9070 C   0  0  0  0  0  0  0  0  0  0  0  0
   38.0110   34.8880   33.1690 C   0  0  0  0  0  0  0  0  0  0  0  0
   39.2080   35.1420   32.6080 C   0  0  0  0  0  0  0  0  0  0  0  0
   39.2350   38.8100   29.1810 C   0  0  0  0  0  0  0  0  0  0  0  0
   36.7870   35.5490   32.5290 C   0  0  0  0  0  0  0  0  0  0  0  0
   38.3260   36.8980   31.2150 C   0  0  0  0  0  0  0  0  0  0  0  0
   39.7410   37.8960   29.9740 C   0  0  0  0  0  0  0  0  0  0  0  0
   40.2150   34.4180   32.9530 O   0  0  0  0  0  0  0  0  0  0  0  0
   35.4220   35.2380   32.9390 C   0  0  0  0  0  0  0  0  0  0  0  0
   39.3500   36.0850   31.6530 C   0  0  0  0  0  0  0  0  0  0  0  0
   40.7180   36.1410   31.1510 C   0  0  0  0  0  0  0  0  0  0  0  0
  1 13  1  0
  2  7  1  0
  4  3  1  0
  5 10  1  0
  5  4  1  0
  6  9  1  0
  7 11  1  0
  7  4  2  0
  8  2  2  0
  8 12  1  0
  9  1  2  3
 12  5  2  0
 13 12  1  0
M  END
$$$$

     RDKit          3D

  9  8  0  0  0  0  0  0  0  0999 V2000
   43.0880   38.0950   31.9510 C   0  0  0  0  0  0  0  0  0  0  0  0
   43.4350   37.2500   32.4810 O   0  0  0  0  0  0  0  0  0  0  0  0
   42.5820   39.3410   32.4210 O   0  0  0  0  0  0  0  0  0  0  0  0
   42.6220   37.5410   30.9580 C   0  0  0  0  0  0  0  0  0  0  0  0
   40.4960   38.2920   30.0930 O   0  0  0  0  0  0  0  0  0  0  0  0
   43.7700   40.1920   32.3300 C   0  0  0  0  0  0  0  0  0  0  0  0
   41.5030   36.3130   29.3270 C   0  0  0  0  0  0  0  0  0  0  0  0
   40.5510   37.4030   29.3490 C   0  0  0  0  0  0  0  0  0  0  0  0
   42.2190   36.3560   30.5800 N   0  0  0  0  0  0  0  0  0  0  0  0
  1  3  1  0
  1  2  2  0
  4  1  1  0
  6  3  1  0
  7  8  1  0
  7  9  1  0
  8  5  2  0
  9  4  2  3
M  END
$$$$

     RDKit          3D

 12 12  0  0  0  0  0  0  0  0999 V2000
   36.7760   38.0520   32.4570 O   0  0  0  0  0  0  0  0  0  0  0  0
   41.9490   38.4300   31.2720 C   0  0  0  0  0  0  0  0  0  0  0  0
   37.0740   35.6350   32.5820 C   0  0  0  0  0  0  0  0  0  0  0  0
   37.5630   37.0130   32.2270 C   0  0  0  0  0  0  0  0  0  0  0  0
   38.7630   37.4090   31.8000 C   0  0  0  0  0  0  0  0  0  0  0  0
   42.1160   39.3100   30.5680 O   0  0  0  0  0  0  0  0  0  0  0  0
   41.6260   35.8770   30.2570 N   0  0  0  0  0  0  0  0  0  0  0  0
   40.6420   37.6430   31.5420 C   0  0  0  0  0  0  0  0  0  0  0  0
   39.5830   38.3420   31.9880 C   0  0  0  0  0  0  0  0  0  0  0  0
   38.5040   34.4710   32.5440 S   0  0  0  0  0  0  0  0  0  0  0  0
   39.7630   35.0770   31.4830 C   0  0  0  0  0  0  0  0  0  0  0  0
   40.6980   36.2230   31.0310 C   0  0  0  0  0  0  0  0  0  0  0  0
  4  1  1  0
  4  3  1  0
  5  9  1  0
  5  4  1  0
  6  2  2  0
  7 12  2  0
  8  2  1  0
  8  9  1  0
 10  3  1  0
 11 10  1  0
 12 11  1  0
 12  8  1  0
M  END
$$$$

     RDKit          3D

 15 16  0  0  0  0  0  0  0  0999 V2000
   38.9180   33.8630   32.3710 C   0  0  0  0  0  0  0  0  0  0  0  0
   41.3970   38.1130   30.7100 C   0  0  0  0  0  0  0  0  0  0  0  0
   42.0710   35.5680   31.2250 C   0  0  0  0  0  0  0  0  0  0  0  0
   37.0110   34.7070   33.9200 C   0  0  0  0  0  0  0  0  0  0  0  0
   38.3130   32.8060   34.5170 N   0  0  0  0  0  0  0  0  0  0  0  0
   38.1740   33.8370   33.6220 C   0  0  0  0  0  0  0  0  0  0  0  0
   39.5810   38.6910   30.0290 S   0  0  0  0  0  0  0  0  0  0  0  0
   39.8550   40.3600   29.8340 C   0  0  0  0  0  0  0  0  0  0  0  0
   43.3100   39.7280   30.4650 O   0  0  0  0  0  0  0  0  0  0  0  0
   40.0480   36.3360   32.2810 S   0  0  0  0  0  0  0  0  0  0  0  0
   41.2160   40.6010   29.7580 C   0  0  0  0  0  0  0  0  0  0  0  0
   41.2910   34.3240   31.5700 C   0  0  0  0  0  0  0  0  0  0  0  0
   40.1900   34.5460   32.1440 C   0  0  0  0  0  0  0  0  0  0  0  0
   42.0480   39.4330   30.5900 C   0  0  0  0  0  0  0  0  0  0  0  0
   41.1510   36.7390   30.9460 C   0  0  0  0  0  0  0  0  0  0  0  0
  1  6  1  0
  2  7  1  0
  2 15  1  0
  3 12  1  0
  6  4  1  0
  6  5  1  0
  8  7  1  0
 11  8  1  0
 11 14  1  0
 12 13  1  0
 13 10  1  0
 13  1  1  0
 14  9  1  0
 14  2  1  0
 15  3  1  0
 15 10  1  0
M  END
$$$$

     RDKit          3D

 13 12  0  0  0  0  0  0  0  0999 V2000
   42.9110   34.7150   31.4370 O   0  0  0  0  0  0  0  0  0  0  0  0
   42.4120   36.0180   30.8680 P   0  0  0  0  0  0  0  0  0  0  0  0
   38.6110   36.8660   32.8410 C   0  0  0  0  0  0  0  0  0  0  0  0
   37.4300   37.0460   33.1480 O   0  0  0  0  0  0  0  0  0  0  0  0
   38.3500   34.3770   31.6440 C   0  0  0  0  0  0  0  0  0  0  0  0
   39.8300   36.3860   31.1600 C   0  0  0  0  0  0  0  0  0  0  0  0
   40.8520   36.1120   31.1640 O   0  0  0  0  0  0  0  0  0  0  0  0
   42.9970   37.2340   31.5710 O   0  0  0  0  0  0  0  0  0  0  0  0
   38.3400   33.0730   31.8960 N   0  0  0  0  0  0  0  0  0  0  0  0
   42.5900   36.1060   29.4560 O   0  0  0  0  0  0  0  0  0  0  0  0
   37.8340   33.7930   33.9660 O   0  0  0  0  0  0  0  0  0  0  0  0
   38.9400   35.5290   32.1470 C   0  0  0  0  0  0  0  0  0  0  0  0
   37.8300   32.6850   33.1350 C   0  0  0  0  0  0  0  0  0  0  0  0
  2  7  1  0
  2  1  1  0
  2  8  1  0
  3  4  2  0
  5  9  1  0
  5 12  1  0
  6  7  1  0
  9 13  1  0
 10  2  2  0
 12  6  1  0
 12  3  1  0
 13 11  1  0
M  END
$$$$

     RDKit          3D

 13 14  0  0  0  0  0  0  0  0999 V2000
   36.7390   35.6600   32.5940 C   0  0  0  0  0  0  0  0  0  0  0  0
   40.8060   34.5790   31.2110 C   0  0  0  0  0  0  0  0  0  0  0  0
   37.4270   35.2520   33.8460 C   0  0  0  0  0  0  0  0  0  0  0  0
   39.1090   33.2670   32.0180 C   0  0  0  0  0  0  0  0  0  0  0  0
   38.8760   35.3610   33.5000 O   0  0  0  0  0  0  0  0  0  0  0  0
   40.2830   33.2520   31.3100 N   0  0  0  0  0  0  0  0  0  0  0  0
   35.7940   33.4900   34.0990 O   0  0  0  0  0  0  0  0  0  0  0  0
   39.0750   34.0090   33.1160 C   0  0  0  0  0  0  0  0  0  0  0  0
   37.0100   33.8750   33.4600 C   0  0  0  0  0  0  0  0  0  0  0  0
   37.6990   36.7820   32.1010 C   0  0  0  0  0  0  0  0  0  0  0  0
   39.8920   35.8200   31.3120 C   0  0  0  0  0  0  0  0  0  0  0  0
   39.0980   36.3860   32.5140 C   0  0  0  0  0  0  0  0  0  0  0  0
   36.6010   34.2470   32.0420 C   0  0  0  0  0  0  0  0  0  0  0  0
  1 10  1  0
  1  3  1  0
  2  6  1  0
  2 11  1  0
  4  8  1  0
  6  4  1  0
  8  5  1  0
  9  3  1  0
  9  7  1  0
 11 12  1  0
 12 10  1  0
 12  5  1  0
 13  1  1  0
 13  9  1  0
M  END
$$$$

     RDKit          3D

 24 26  0  0  0  0  0  0  0  0999 V2000
   40.1370   35.0650   32.5280 C   0  0  0  0  0  0  0  0  0  0  0  0
   43.3250   36.2240   28.4380 O   0  0  0  0  0  0  0  0  0  0  0  0
   38.8940   35.4940   32.3430 C   0  0  0  0  0  0  0  0  0  0  0  0
   30.8370   36.0910   35.7510 O   0  0  0  0  0  0  0  0  0  0  0  0
   35.3470   35.3200   33.3420 C   0  0  0  0  0  0  0  0  0  0  0  0
   37.7730   35.7780   32.8770 C   0  0  0  0  0  0  0  0  0  0  0  0
   32.7670   32.9620   35.9800 C   0  0  0  0  0  0  0  0  0  0  0  0
   39.5780   37.4370   30.8570 C   0  0  0  0  0  0  0  0  0  0  0  0
   36.4390   34.9980   32.6480 C   0  0  0  0  0  0  0  0  0  0  0  0
   31.2240   34.8130   36.1640 C   0  0  0  0  0  0  0  0  0  0  0  0
   34.5700   32.9010   34.3220 C   0  0  0  0  0  0  0  0  0  0  0  0
   40.7710   36.5320   30.7020 C   0  0  0  0  0  0  0  0  0  0  0  0
   40.0910   38.6600   30.4690 C   0  0  0  0  0  0  0  0  0  0  0  0
   33.8550   35.1080   35.2030 C   0  0  0  0  0  0  0  0  0  0  0  0
   32.6820   34.4620   35.8680 C   0  0  0  0  0  0  0  0  0  0  0  0
   42.6180   37.0450   28.9470 C   0  0  0  0  0  0  0  0  0  0  0  0
   42.7160   38.2550   28.6490 O   0  0  0  0  0  0  0  0  0  0  0  0
   41.0710   35.7270   31.7880 C   0  0  0  0  0  0  0  0  0  0  0  0
   34.5000   34.3210   34.0790 C   0  0  0  0  0  0  0  0  0  0  0  0
   38.7280   36.9840   31.7110 C   0  0  0  0  0  0  0  0  0  0  0  0
   37.6380   37.0110   32.2590 N   0  0  0  0  0  0  0  0  0  0  0  0
   33.2580   32.3330   34.7340 N   0  0  0  0  0  0  0  0  0  0  0  0
   36.4650   34.1520   31.8800 O   0  0  0  0  0  0  0  0  0  0  0  0
   41.7070   36.4300   29.4750 N   0  0  0  0  0  0  0  0  0  0  0  0
  2 16  2  0
  3  1  1  0
  3  6  1  0
  4 10  1  0
  6  9  1  0
  8 13  1  0
  8 20  1  0
  9  5  1  0
 11 22  1  0
 12 24  1  0
 12  8  1  0
 12 18  1  0
 14 15  1  0
 15  7  1  0
 15 10  1  0
 16 24  1  0
 17 16  1  0
 18  1  1  0
 19  5  1  0
 19 11  1  0
 19 14  1  0
 20 21  1  0
 20  3  1  0
 21  6  1  0
 22  7  1  0
 23  9  2  0
M  END
$$$$

     RDKit          3D

 13 14  0  0  0  0  0  0  0  0999 V2000
   38.0550   34.2820   34.2130 C   0  0  0  0  0  0  0  0  0  0  0  0
   40.8310   36.6890   33.2590 C   0  0  0  0  0  0  0  0  0  0  0  0
   39.9910   35.6360   32.9340 C   0  0  0  0  0  0  0  0  0  0  0  0
   40.5130   37.9860   32.9560 C   0  0  0  0  0  0  0  0  0  0  0  0
   40.4300   34.8210   31.7460 C   0  0  0  0  0  0  0  0  0  0  0  0
   37.7920   35.9710   33.1960 N   0  0  0  0  0  0  0  0  0  0  0  0
   35.6880   33.7710   35.1980 C   0  0  0  0  0  0  0  0  0  0  0  0
   41.4050   36.6170   34.6470 C   0  0  0  0  0  0  0  0  0  0  0  0
   38.6560   35.3020   33.5250 C   0  0  0  0  0  0  0  0  0  0  0  0
   41.6570   37.2510   32.3420 C   0  0  0  0  0  0  0  0  0  0  0  0
   39.7430   33.5160   31.4980 N   0  0  0  0  0  0  0  0  0  0  0  0
   36.5520   35.6320   33.4950 C   0  0  0  0  0  0  0  0  0  0  0  0
   36.5650   34.5130   34.1790 C   0  0  0  0  0  0  0  0  0  0  0  0
  2  8  1  0
  3  5  1  0
  3  2  1  0
  3  9  1  0
  4  2  1  0
  6 12  2  0
  6  9  1  0
  9  1  2  0
 10  4  1  0
 10  2  1  0
 11  5  1  0
 12 13  1  0
 13  1  1  0
 13  7  1  0
M  END
$$$$

     RDKit          3D

 18 19  0  0  0  0  0  0  0  0999 V2000
   39.7900   35.2420   34.8830 C   0  0  0  0  0  0  0  0  0  0  0  0
   37.7630   33.8610   36.1850 C   0  0  0  0  0  0  0  0  0  0  0  0
   39.0420   34.2410   34.2870 C   0  0  0  0  0  0  0  0  0  0  0  0
   43.5040   37.9110   33.2370 N   0  0  0  0  0  0  0  0  0  0  0  0
   40.6460   36.0990   34.0880 C   0  0  0  0  0  0  0  0  0  0  0  0
   32.4490   33.9140   34.8430 O   0  0  0  0  0  0  0  0  0  0  0  0
   34.3440   33.0480   35.9490 C   0  0  0  0  0  0  0  0  0  0  0  0
   38.7260   34.6520   36.9160 C   0  0  0  0  0  0  0  0  0  0  0  0
   43.1180   38.5700   34.5420 C   0  0  0  0  0  0  0  0  0  0  0  0
   41.4250   38.7330   32.5850 N   0  0  0  0  0  0  0  0  0  0  0  0
   32.9890   33.0340   35.4890 C   0  0  0  0  0  0  0  0  0  0  0  0
   39.7200   35.3410   36.2220 N   0  0  0  0  0  0  0  0  0  0  0  0
   36.5380   33.3660   36.8930 C   0  0  0  0  0  0  0  0  0  0  0  0
   32.2380   31.8770   35.5830 N   0  0  0  0  0  0  0  0  0  0  0  0
   37.9220   33.6450   34.8590 C   0  0  0  0  0  0  0  0  0  0  0  0
   35.4340   33.1660   35.9270 N   0  0  0  0  0  0  0  0  0  0  0  0
   42.1890   38.0800   33.4520 C   0  0  0  0  0  0  0  0  0  0  0  0
   41.4180   36.9540   33.9650 N   0  0  0  0  0  0  0  0  0  0  0  0
  1 12  1  0
  2 13  1  0
  2  8  1  0
  3 15  1  0
  3  1  2  0
  4 17  1  0
  4  9  1  0
  5  1  1  0
  6 11  2  0
 11 14  1  0
 11  7  1  0
 12  8  2  0
 15  2  2  0
 16  7  1  0
 16 13  1  0
 17 10  1  0
 17 18  1  0
 17  9  1  0
 18  5  1  0
M  END
$$$$

     RDKit          3D

 11 11  0  0  0  0  0  0  0  0999 V2000
   39.7220   35.3320   31.5410 C   0  0  0  0  0  0  0  0  0  0  0  0
   40.2380   38.1700   33.0650 O   0  0  0  0  0  0  0  0  0  0  0  0
   41.9040   38.2420   31.3320 O   0  0  0  0  0  0  0  0  0  0  0  0
   40.8870   37.6030   32.0820 C   0  0  0  0  0  0  0  0  0  0  0  0
   38.6130   35.9730   32.3560 C   0  0  0  0  0  0  0  0  0  0  0  0
   37.3700   36.3680   32.3230 O   0  0  0  0  0  0  0  0  0  0  0  0
   42.0180   36.0840   30.9200 C   0  0  0  0  0  0  0  0  0  0  0  0
   43.6150   37.3540   29.4870 C   0  0  0  0  0  0  0  0  0  0  0  0
   40.8830   36.2630   31.6270 C   0  0  0  0  0  0  0  0  0  0  0  0
   42.4590   34.9070   30.7710 O   0  0  0  0  0  0  0  0  0  0  0  0
   42.5950   37.3470   30.7650 C   0  0  0  0  0  0  0  0  0  0  0  0
  1  5  1  0
  3  4  1  0
  4  2  2  0
  6  5  1  0
  7  9  1  0
  9  1  1  0
  9  4  1  0
 10  7  2  0
 11  8  1  0
 11  7  1  0
 11  3  1  0
M  END
$$$$

     RDKit          3D

 11 12  0  0  0  0  0  0  0  0999 V2000
   41.5340   37.8180   34.2490 O   0  0  0  0  0  0  0  0  0  0  0  0
   38.1050   36.7850   31.6330 C   0  0  0  0  0  0  0  0  0  0  0  0
   39.8310   33.5270   36.0580 O   0  0  0  0  0  0  0  0  0  0  0  0
   37.8720   35.6310   32.4160 C   0  0  0  0  0  0  0  0  0  0  0  0
   40.4090   35.7270   35.1400 C   0  0  0  0  0  0  0  0  0  0  0  0
   38.7650   35.6790   33.4310 C   0  0  0  0  0  0  0  0  0  0  0  0
   39.7290   36.7760   33.2140 N   0  0  0  0  0  0  0  0  0  0  0  0
   39.2470   37.4530   32.1350 N   0  0  0  0  0  0  0  0  0  0  0  0
   38.8080   33.7030   35.1240 C   0  0  0  0  0  0  0  0  0  0  0  0
   40.6740   36.8850   34.1930 C   0  0  0  0  0  0  0  0  0  0  0  0
   38.9460   35.1440   34.8330 C   0  0  0  0  0  0  0  0  0  0  0  0
  2  8  2  0
  2  4  1  0
  4  6  2  0
  6 11  1  0
  7  6  1  0
  7 10  1  0
  8  7  1  0
  9  3  1  0
 10  1  2  0
 10  5  1  0
 11  9  1  0
 11  5  1  0
M  END
$$$$

     RDKit          3D

 12 12  0  0  0  0  0  0  0  0999 V2000
   39.6050   39.6590   30.3120 C   0  0  0  0  0  0  0  0  0  0  0  0
   41.3330   35.4010   30.9650 N   0  0  0  0  0  0  0  0  0  0  0  0
   41.2370   36.4550   30.7490 C   0  0  0  0  0  0  0  0  0  0  0  0
   37.3390   36.1330   32.3270 C   0  0  0  0  0  0  0  0  0  0  0  0
   38.5980   37.6190   31.4430 C   0  0  0  0  0  0  0  0  0  0  0  0
   39.2890   34.9500   32.7890 C   0  0  0  0  0  0  0  0  0  0  0  0
   35.9210   34.1420   33.7960 C   0  0  0  0  0  0  0  0  0  0  0  0
   38.7560   36.2160   32.0720 C   0  0  0  0  0  0  0  0  0  0  0  0
   37.0830   34.8840   33.1990 C   0  0  0  0  0  0  0  0  0  0  0  0
   38.2650   34.2920   33.3200 C   0  0  0  0  0  0  0  0  0  0  0  0
   40.8140   37.5870   30.6140 N   0  0  0  0  0  0  0  0  0  0  0  0
   39.7290   38.2320   30.7680 C   0  0  0  0  0  0  0  0  0  0  0  0
  1 12  1  0
  3  2  3  0
  4  9  1  0
  5  8  1  0
  6 10  2  0
  8  4  2  0
  8  6  1  0
  9 10  1  0
  9  7  1  0
 11  3  1  0
 11 12  2  3
 12  5  1  0
M  END
$$$$
