
     RDKit          3D

 10 10  0  0  0  0  0  0  0  0999 V2000
   39.6280   35.3240   32.0120 C   0  0  0  0  0  0  0  0  0  0  0  0
   41.7040   36.5990   31.0310 C   0  0  0  0  0  0  0  0  0  0  0  0
   41.0200   33.3240   31.7760 N   0  0  0  0  0  0  0  0  0  0  0  0
   40.6410   37.1890   31.5860 C   0  0  0  0  0  0  0  0  0  0  0  0
   38.8980   37.9500   32.5880 C   0  0  0  0  0  0  0  0  0  0  0  0
   41.6150   35.2680   30.6560 C   0  0  0  0  0  0  0  0  0  0  0  0
   40.7650   34.6950   31.4920 C   0  0  0  0  0  0  0  0  0  0  0  0
   37.5950   37.6300   32.9200 O   0  0  0  0  0  0  0  0  0  0  0  0
   39.4570   36.6740   31.9720 C   0  0  0  0  0  0  0  0  0  0  0  0
   38.9150   39.0270   31.6730 O   0  0  0  0  0  0  0  0  0  0  0  0
  2  4  2  0
  4  9  1  0
  5  8  1  0
  6  2  1  0
  6  7  1  0
  7  3  1  0
  7  1  1  0
  9  1  1  0
  9  5  1  0
 10  5  1  0
M  END
$$$$

     RDKit          3D

  9  9  0  0  0  0  0  0  0  0999 V2000
   40.9420   37.4800   32.1080 N   0  0  0  0  0  0  0  0  0  0  0  0
   38.6820   36.2690   31.3850 C   0  0  0  0  0  0  0  0  0  0  0  0
   42.0660   39.2820   32.9210 O   0  0  0  0  0  0  0  0  0  0  0  0
   42.0520   35.5390   31.4000 O   0  0  0  0  0  0  0  0  0  0  0  0
   42.1830   38.2040   32.3960 C   0  0  0  0  0  0  0  0  0  0  0  0
   38.5860   37.4450   32.1460 C   0  0  0  0  0  0  0  0  0  0  0  0
   39.8340   36.0620   30.5990 C   0  0  0  0  0  0  0  0  0  0  0  0
   41.0010   36.2630   31.3970 C   0  0  0  0  0  0  0  0  0  0  0  0
   39.7220   38.0730   32.4510 C   0  0  0  0  0  0  0  0  0  0  0  0
  1  5  1  0
  1  9  1  0
  2  6  1  0
  5  3  2  0
  6  9  2  0
  7  2  1  0
  7  8  1  0
  8  4  2  0
  8  1  1  0
M  END
$$$$

     RDKit          3D

  6  5  0  0  0  0  0  0  0  0999 V2000
   43.2450   40.7590   31.7710 C   0  0  0  0  0  0  0  0  0  0  0  0
   43.8650   39.2960   28.7120 C   0  0  0  0  0  0  0  0  0  0  0  0
   43.7490   38.8160   30.1520 C   0  0  0  0  0  0  0  0  0  0  0  0
   43.9380   39.6380   31.0750 C   0  0  0  0  0  0  0  0  0  0  0  0
   43.0130   40.1830   33.2520 C   0  0  0  0  0  0  0  0  0  0  0  0
   44.3880   37.5670   30.3940 N   0  0  0  0  0  0  0  0  0  0  0  0
  1  5  1  0
  3  2  1  0
  3  6  1  0
  3  4  1  0
  4  1  1  0
M  END
$$$$

     RDKit          3D

  7  8  0  0  0  0  0  0  0  0999 V2000
   41.8460   39.5000   30.0420 C   0  0  0  0  0  0  0  0  0  0  0  0
   43.7330   38.1750   32.7070 C   0  0  0  0  0  0  0  0  0  0  0  0
   42.6580   37.2470   30.6020 C   0  0  0  0  0  0  0  0  0  0  0  0
   42.6320   39.0410   32.6990 C   0  0  0  0  0  0  0  0  0  0  0  0
   42.7050   38.5130   31.4210 C   0  0  0  0  0  0  0  0  0  0  0  0
   42.7610   39.2340   29.0030 C   0  0  0  0  0  0  0  0  0  0  0  0
   43.2670   37.6830   29.2970 C   0  0  0  0  0  0  0  0  0  0  0  0
  1  5  1  0
  3  5  1  0
  4  2  1  0
  5  4  1  0
  5  2  1  0
  6  7  1  0
  6  1  1  0
  7  3  1  0
M  END
$$$$

     RDKit          3D

 11 11  0  0  0  0  0  0  0  0999 V2000
   42.4960   39.0430   29.4020 C   0  0  0  0  0  0  0  0  0  0  0  0
   40.1640   39.5710   32.9880 O   0  0  0  0  0  0  0  0  0  0  0  0
   42.1810   39.3110   31.8770 C   0  0  0  0  0  0  0  0  0  0  0  0
   45.2230   37.5990   31.6270 O   0  0  0  0  0  0  0  0  0  0  0  0
   41.8260   40.5370   33.9280 O   0  0  0  0  0  0  0  0  0  0  0  0
   41.3950   40.0390   32.8480 C   0  0  0  0  0  0  0  0  0  0  0  0
   43.8090   39.0410   29.9320 C   0  0  0  0  0  0  0  0  0  0  0  0
   42.6990   37.4420   33.2060 O   0  0  0  0  0  0  0  0  0  0  0  0
   41.5150   39.2870   30.5110 C   0  0  0  0  0  0  0  0  0  0  0  0
   43.1970   38.4320   32.2810 C   0  0  0  0  0  0  0  0  0  0  0  0
   43.9500   37.9530   31.0320 C   0  0  0  0  0  0  0  0  0  0  0  0
  1  7  1  0
  1  9  1  0
  3 10  1  0
  3  6  1  0
  6  2  2  0
  6  5  1  0
  7 11  1  0
  9  3  1  0
 10  8  1  0
 11  4  1  0
 11 10  1  0
M  END
$$$$

     RDKit          3D

 15 15  0  0  0  0  0  0  0  0999 V2000
   44.5120   36.8040   29.7910 I   0  0  0  0  0  0  0  0  0  0  0  0
   38.3370   37.0470   31.6410 C   0  0  0  0  0  0  0  0  0  0  0  0
   39.7630   36.6520   33.5370 O   0  0  0  0  0  0  0  0  0  0  0  0
   40.7150   37.6320   31.7980 C   0  0  0  0  0  0  0  0  0  0  0  0
   37.7790   38.0450   31.2080 O   0  0  0  0  0  0  0  0  0  0  0  0
   41.5800   38.5730   32.4540 C   0  0  0  0  0  0  0  0  0  0  0  0
   42.9150   38.5080   31.8670 C   0  0  0  0  0  0  0  0  0  0  0  0
   41.7250   36.2280   31.2820 S   0  0  0  0  0  0  0  0  0  0  0  0
   36.0540   36.2380   31.6330 O   0  0  0  0  0  0  0  0  0  0  0  0
   42.1130   40.3230   34.0860 O   0  0  0  0  0  0  0  0  0  0  0  0
   40.0220   39.4960   34.0180 O   0  0  0  0  0  0  0  0  0  0  0  0
   41.2100   39.5480   33.6410 C   0  0  0  0  0  0  0  0  0  0  0  0
   37.4220   35.9260   32.0030 C   0  0  0  0  0  0  0  0  0  0  0  0
   43.1270   37.3280   31.2160 C   0  0  0  0  0  0  0  0  0  0  0  0
   39.6450   37.0630   32.4160 C   0  0  0  0  0  0  0  0  0  0  0  0
  2 13  1  0
  2 15  1  0
  4 15  1  0
  4  6  1  0
  5  2  2  0
  6 12  1  0
  7  6  1  0
  8  4  1  0
  9 13  1  0
 12 11  2  0
 12 10  1  0
 14  1  1  0
 14  8  1  0
 14  7  1  0
 15  3  2  0
M  END
$$$$

     RDKit          3D

 13 15  0  0  0  0  0  0  0  0999 V2000
   37.5690   37.4660   32.8370 C   0  0  0  0  0  0  0  0  0  0  0  0
   40.2760   36.5140   30.4850 C   0  0  0  0  0  0  0  0  0  0  0  0
   42.6870   36.4380   29.8980 C   0  0  0  0  0  0  0  0  0  0  0  0
   41.2620   36.8110   31.5890 C   0  0  0  0  0  0  0  0  0  0  0  0
   41.3950   37.2640   30.1330 C   0  0  0  0  0  0  0  0  0  0  0  0
   38.6040   37.0400   30.4320 S   0  0  0  0  0  0  0  0  0  0  0  0
   42.8050   36.6540   31.4200 C   0  0  0  0  0  0  0  0  0  0  0  0
   35.5290   36.3160   32.2860 C   0  0  0  0  0  0  0  0  0  0  0  0
   37.5080   35.7450   31.1040 C   0  0  0  0  0  0  0  0  0  0  0  0
   38.8850   37.6720   32.1100 C   0  0  0  0  0  0  0  0  0  0  0  0
   37.7660   34.2940   31.1070 C   0  0  0  0  0  0  0  0  0  0  0  0
   37.2710   36.0200   32.5770 C   0  0  0  0  0  0  0  0  0  0  0  0
   41.4580   38.5140   29.9460 N   0  0  0  0  0  0  0  0  0  0  0  0
  2  6  1  0
  2  4  1  0
  3  5  1  0
  3  7  1  0
  4  7  1  0
  5 13  1  0
  5  2  1  0
  5  4  1  0
  6  9  1  0
  6 10  1  0
  9 11  1  0
  9 12  1  0
 10  1  1  0
 12  8  1  0
 12  1  1  0
M  END
$$$$

     RDKit          3D

  8  7  0  0  0  0  0  0  0  0999 V2000
   42.7830   36.8520   29.7980 C   0  0  0  0  0  0  0  0  0  0  0  0
   43.4490   38.1030   30.3110 C   0  0  0  0  0  0  0  0  0  0  0  0
   42.3400   39.8630   31.4240 O   0  0  0  0  0  0  0  0  0  0  0  0
   42.5640   39.2510   30.3400 C   0  0  0  0  0  0  0  0  0  0  0  0
   44.4570   38.3640   31.3030 O   0  0  0  0  0  0  0  0  0  0  0  0
   42.0370   36.1460   30.5280 O   0  0  0  0  0  0  0  0  0  0  0  0
   42.0580   39.7920   29.3880 O   0  0  0  0  0  0  0  0  0  0  0  0
   42.9160   36.6770   28.5610 O   0  0  0  0  0  0  0  0  0  0  0  0
  1  2  1  0
  1  6  1  0
  2  4  1  0
  2  5  1  0
  4  3  1  0
  7  4  2  0
  8  1  2  0
M  END
$$$$

     RDKit          3D

 24 27  0  0  0  0  0  0  0  0999 V2000
   41.8530   40.2480   34.6750 N   0  0  0  0  0  0  0  0  0  0  0  0
   34.2960   34.2410   32.6060 C   0  0  0  0  0  0  0  0  0  0  0  0
   35.7250   33.6500   32.4970 C   0  0  0  0  0  0  0  0  0  0  0  0
   43.4430   36.0620   31.1580 C   0  0  0  0  0  0  0  0  0  0  0  0
   36.8690   34.4300   32.4560 C   0  0  0  0  0  0  0  0  0  0  0  0
   42.8450   39.7960   32.8110 C   0  0  0  0  0  0  0  0  0  0  0  0
   36.2660   36.9000   31.8610 C   0  0  0  0  0  0  0  0  0  0  0  0
   40.7060   38.5010   33.1080 C   0  0  0  0  0  0  0  0  0  0  0  0
   42.7660   37.5360   31.3690 C   0  0  0  0  0  0  0  0  0  0  0  0
   43.0810   36.8700   32.3640 C   0  0  0  0  0  0  0  0  0  0  0  0
   37.1040   35.7800   32.1880 C   0  0  0  0  0  0  0  0  0  0  0  0
   37.9410   33.5420   32.6710 N   0  0  0  0  0  0  0  0  0  0  0  0
   42.7380   39.1360   31.3800 C   0  0  0  0  0  0  0  0  0  0  0  0
   38.7940   37.4920   31.7100 C   0  0  0  0  0  0  0  0  0  0  0  0
   43.1520   41.0830   33.1710 N   0  0  0  0  0  0  0  0  0  0  0  0
   41.2870   37.2190   30.9030 C   0  0  0  0  0  0  0  0  0  0  0  0
   38.4520   36.1970   32.2440 O   0  0  0  0  0  0  0  0  0  0  0  0
   43.0070   39.8610   30.0930 C   0  0  0  0  0  0  0  0  0  0  0  0
   41.8610   39.4410   33.6070 C   0  0  0  0  0  0  0  0  0  0  0  0
   35.7470   32.1610   32.1940 C   0  0  0  0  0  0  0  0  0  0  0  0
   42.8210   41.2030   34.3390 C   0  0  0  0  0  0  0  0  0  0  0  0
   34.6280   36.0630   31.8760 S   0  0  0  0  0  0  0  0  0  0  0  0
   40.2700   37.7560   31.8360 C   0  0  0  0  0  0  0  0  0  0  0  0
   33.5530   33.1720   33.5800 C   0  0  0  0  0  0  0  0  0  0  0  0
  2 24  1  0
  3 20  1  0
  3  2  1  0
  4  9  1  0
  4 10  1  0
  5  3  1  0
  5 12  1  0
  6 15  1  0
  6 19  1  0
  7 22  1  0
  7 11  1  0
  8 19  2  0
  9 13  1  0
  9 10  1  0
 11 17  1  0
 11  5  2  0
 13 18  1  0
 13  6  1  0
 14 17  1  0
 15 21  1  0
 16  9  1  0
 16 23  1  0
 19  1  1  0
 21  1  1  0
 22  2  1  0
 23 14  1  0
 23  8  1  0
M  END
$$$$

     RDKit          3D

 25 26  0  0  0  0  0  0  0  0999 V2000
   36.3060   36.7750   32.9600 O   0  0  0  0  0  0  0  0  0  0  0  0
   43.5750   40.1530   31.1520 O   0  0  0  0  0  0  0  0  0  0  0  0
   39.1550   37.7900   33.2360 C   0  0  0  0  0  0  0  0  0  0  0  0
   34.2600   31.5790   30.1580 O   0  0  0  0  0  0  0  0  0  0  0  0
   37.2160   36.0660   32.5540 C   0  0  0  0  0  0  0  0  0  0  0  0
   35.9910   34.2470   31.6380 C   0  0  0  0  0  0  0  0  0  0  0  0
   38.6530   36.4860   32.8430 C   0  0  0  0  0  0  0  0  0  0  0  0
   40.7780   35.6100   32.7440 C   0  0  0  0  0  0  0  0  0  0  0  0
   42.8030   40.6860   32.2100 P   0  0  0  0  0  0  0  0  0  0  0  0
   43.9470   36.2910   32.2300 C   0  0  0  0  0  0  0  0  0  0  0  0
   40.5390   37.9380   33.2020 C   0  0  0  0  0  0  0  0  0  0  0  0
   43.8880   41.9120   32.9210 C   0  0  0  0  0  0  0  0  0  0  0  0
   33.6790   33.3560   31.5850 C   0  0  0  0  0  0  0  0  0  0  0  0
   41.4360   36.8390   32.7190 C   0  0  0  0  0  0  0  0  0  0  0  0
   37.0240   34.9990   31.7840 N   0  0  0  0  0  0  0  0  0  0  0  0
   34.6940   32.2450   31.2940 C   0  0  0  0  0  0  0  0  0  0  0  0
   32.5680   32.4240   32.0870 C   0  0  0  0  0  0  0  0  0  0  0  0
   42.3080   39.4040   32.9610 O   0  0  0  0  0  0  0  0  0  0  0  0
   32.1550   31.4210   32.1320 O   0  0  0  0  0  0  0  0  0  0  0  0
   41.4930   41.3090   31.9710 O   0  0  0  0  0  0  0  0  0  0  0  0
   39.4870   35.5050   33.0830 N   0  0  0  0  0  0  0  0  0  0  0  0
   34.5380   34.8410   31.0590 S   0  0  0  0  0  0  0  0  0  0  0  0
   36.1250   32.7520   31.2900 C   0  0  0  0  0  0  0  0  0  0  0  0
   42.7990   37.1090   32.5570 O   0  0  0  0  0  0  0  0  0  0  0  0
   41.0160   39.1420   33.3870 N   0  0  0  0  0  0  0  0  0  0  0  0
  2  9  2  0
  5  1  2  0
  6 15  1  0
  7  5  1  0
  7 21  1  0
  7  3  1  0
  8 21  1  0
  9 12  1  0
  9 18  1  0
 10 24  1  0
 11  3  1  0
 11 25  2  3
 13 17  1  0
 14  8  2  0
 14 11  1  0
 15  5  1  0
 16  4  1  0
 16 13  1  0
 17 19  2  0
 18 25  1  0
 20  9  1  0
 22 13  1  0
 22  6  1  0
 23 16  1  0
 23  6  1  0
 24 14  1  0
M  END
$$$$

     RDKit          3D

 13 14  0  0  0  0  0  0  0  0999 V2000
   42.4630   39.8370   33.1550 C   0  0  0  0  0  0  0  0  0  0  0  0
   40.0930   36.0620   32.4760 C   0  0  0  0  0  0  0  0  0  0  0  0
   40.8960   36.1590   31.2050 C   0  0  0  0  0  0  0  0  0  0  0  0
   38.3090   37.4380   33.1020 C   0  0  0  0  0  0  0  0  0  0  0  0
   37.8040   36.3660   32.5160 C   0  0  0  0  0  0  0  0  0  0  0  0
   40.5600   38.5310   33.1560 C   0  0  0  0  0  0  0  0  0  0  0  0
   36.5290   36.3340   32.2350 O   0  0  0  0  0  0  0  0  0  0  0  0
   41.9320   38.5130   32.6880 C   0  0  0  0  0  0  0  0  0  0  0  0
   38.8580   35.5720   32.0550 O   0  0  0  0  0  0  0  0  0  0  0  0
   40.8450   37.6110   30.7050 C   0  0  0  0  0  0  0  0  0  0  0  0
   40.9620   34.7520   30.9190 O   0  0  0  0  0  0  0  0  0  0  0  0
   39.8180   37.3230   33.2520 C   0  0  0  0  0  0  0  0  0  0  0  0
   41.9900   38.3070   31.2280 N   0  0  0  0  0  0  0  0  0  0  0  0
  2  9  1  0
  2 12  1  0
  3 11  1  0
  3  2  1  0
  5  4  1  0
  6 12  1  0
  7  5  2  0
  8  1  1  0
  8  6  1  0
  9  5  1  0
 10  3  1  0
 10 13  1  0
 12  4  1  0
 13  8  1  0
M  END
$$$$

     RDKit          3D

  3  2  0  0  0  0  0  0  0  0999 V2000
   45.2690   37.8410   32.4160 C   0  0  0  0  0  0  0  0  0  0  0  0
   44.5470   38.6720   31.2330 C   0  0  0  0  0  0  0  0  0  0  0  0
   45.1960   39.9820   31.1940 N   0  0  0  0  0  0  0  0  0  0  0  0
  2  1  1  0
  3  2  1  0
M  END
$$$$

     RDKit          3D

 21 22  0  0  0  0  0  0  0  0999 V2000
   37.1480   29.6350   33.3740 C   0  0  0  0  0  0  0  0  0  0  0  0
   46.1570   38.7540   31.2760 C   0  0  0  0  0  0  0  0  0  0  0  0
   39.0550   35.1060   32.1860 N   0  0  0  0  0  0  0  0  0  0  0  0
   36.5380   33.1650   33.6520 C   0  0  0  0  0  0  0  0  0  0  0  0
   43.0960   36.6950   30.4430 C   0  0  0  0  0  0  0  0  0  0  0  0
   37.6410   32.0660   33.3710 C   0  0  0  0  0  0  0  0  0  0  0  0
   42.2890   36.0820   31.0970 C   0  0  0  0  0  0  0  0  0  0  0  0
   41.0350   36.4740   31.7950 C   0  0  0  0  0  0  0  0  0  0  0  0
   44.9550   38.0120   31.7480 N   0  0  0  0  0  0  0  0  0  0  0  0
   40.1300   37.1260   30.8750 N   0  0  0  0  0  0  0  0  0  0  0  0
   43.9210   39.3630   31.9750 C   0  0  0  0  0  0  0  0  0  0  0  0
   35.5540   35.7760   33.9060 Cl  0  0  0  0  0  0  0  0  0  0  0  0
   36.0520   29.8160   34.8550 C   0  0  0  0  0  0  0  0  0  0  0  0
   38.6570   32.6460   32.4930 C   0  0  0  0  0  0  0  0  0  0  0  0
   38.1930   30.6720   33.6990 C   0  0  0  0  0  0  0  0  0  0  0  0
   38.6900   33.9260   32.3430 C   0  0  0  0  0  0  0  0  0  0  0  0
   37.9050   34.9000   32.6680 C   0  0  0  0  0  0  0  0  0  0  0  0
   36.7630   34.5080   33.3260 C   0  0  0  0  0  0  0  0  0  0  0  0
   40.4620   35.1800   32.2250 C   0  0  0  0  0  0  0  0  0  0  0  0
   44.9270   37.5040   32.9900 C   0  0  0  0  0  0  0  0  0  0  0  0
   44.3280   37.4110   30.7560 C   0  0  0  0  0  0  0  0  0  0  0  0
  1 15  1  0
  1 13  1  0
  2  9  1  0
  3 19  1  0
  3 16  1  0
  3 17  1  0
  5 21  1  0
  5  7  1  0
  6  4  1  0
  6 15  1  0
  7  8  1  0
  8 10  1  0
  8 19  1  0
  9 11  1  0
  9 20  1  0
 14  6  2  0
 16 14  1  0
 16 17  2  0
 17 18  1  0
 18  4  2  0
 18 12  1  0
 21  9  1  0
M  END
$$$$

     RDKit          3D

 19 18  0  0  0  0  0  0  0  0999 V2000
   36.2590   32.3620   31.6480 C   0  0  0  0  0  0  0  0  0  0  0  0
   35.6840   34.3860   33.3410 N   0  0  0  0  0  0  0  0  0  0  0  0
   35.5190   36.7620   32.9260 O   0  0  0  0  0  0  0  0  0  0  0  0
   37.9180   34.0130   32.5840 C   0  0  0  0  0  0  0  0  0  0  0  0
   39.7150   37.5270   33.3040 O   0  0  0  0  0  0  0  0  0  0  0  0
   41.9980   36.4680   31.0380 C   0  0  0  0  0  0  0  0  0  0  0  0
   35.4770   31.4440   32.5480 C   0  0  0  0  0  0  0  0  0  0  0  0
   40.0100   35.1290   33.1850 C   0  0  0  0  0  0  0  0  0  0  0  0
   33.9760   31.6280   32.4210 C   0  0  0  0  0  0  0  0  0  0  0  0
   43.0810   37.3680   30.6200 C   0  0  0  0  0  0  0  0  0  0  0  0
   37.8420   35.0570   33.5280 C   0  0  0  0  0  0  0  0  0  0  0  0
   36.5860   33.4740   32.6350 C   0  0  0  0  0  0  0  0  0  0  0  0
   41.7820   36.5780   32.4050 N   0  0  0  0  0  0  0  0  0  0  0  0
   41.0050   36.2170   30.2330 O   0  0  0  0  0  0  0  0  0  0  0  0
   38.6760   33.2260   31.5900 C   0  0  0  0  0  0  0  0  0  0  0  0
   34.0310   35.8550   34.2040 O   0  0  0  0  0  0  0  0  0  0  0  0
   40.3730   36.4600   32.6200 C   0  0  0  0  0  0  0  0  0  0  0  0
   34.9790   35.7150   33.4380 C   0  0  0  0  0  0  0  0  0  0  0  0
   38.9920   35.2060   33.9970 N   0  0  0  0  0  0  0  0  0  0  0  0
  1  7  1  0
  1 12  1  0
  2 18  1  0
  3 18  2  0
  4 12  2  3
  4 11  1  0
  6 13  1  0
  8 19  1  0
  9  7  1  0
 10  6  1  0
 11 19  1  0
 12  2  1  0
 13 17  1  0
 14  6  2  0
 15  4  1  0
 17  8  1  0
 17  5  1  0
 18 16  1  0
M  END
$$$$

     RDKit          3D

 16 16  0  0  0  0  0  0  0  0999 V2000
   40.6710   37.3440   31.5260 C   0  0  0  0  0  0  0  0  0  0  0  0
   37.4350   36.5110   33.5110 C   0  0  0  0  0  0  0  0  0  0  0  0
   42.6900   38.4410   30.3630 C   0  0  0  0  0  0  0  0  0  0  0  0
   35.4490   35.1610   33.4300 O   0  0  0  0  0  0  0  0  0  0  0  0
   42.2220   37.0370   29.9050 C   0  0  0  0  0  0  0  0  0  0  0  0
   40.6020   36.1170   33.5690 N   0  0  0  0  0  0  0  0  0  0  0  0
   41.3990   39.2540   30.3590 C   0  0  0  0  0  0  0  0  0  0  0  0
   40.3670   38.5060   31.0510 O   0  0  0  0  0  0  0  0  0  0  0  0
   38.2430   36.0100   32.3230 C   0  0  0  0  0  0  0  0  0  0  0  0
   41.7330   36.5560   31.1700 O   0  0  0  0  0  0  0  0  0  0  0  0
   43.6980   39.0740   29.5540 O   0  0  0  0  0  0  0  0  0  0  0  0
   36.0280   36.3040   33.0110 C   0  0  0  0  0  0  0  0  0  0  0  0
   40.0700   36.3460   33.4220 N   0  0  0  0  0  0  0  0  0  0  0  0
   39.5120   36.6750   32.1630 C   0  0  0  0  0  0  0  0  0  0  0  0
   41.1400   40.5570   30.1810 O   0  0  0  0  0  0  0  0  0  0  0  0
   35.5370   36.9770   32.0790 O   0  0  0  0  0  0  0  0  0  0  0  0
  1 14  1  0
  3 11  1  0
  5  3  1  0
  5 10  1  0
  7  3  1  0
  7  8  1  0
  8  1  1  0
  9  2  1  0
 10  1  1  0
 12  4  1  0
 12  2  1  0
 13  6  2  0
 14  9  1  0
 14 13  1  0
 15  7  2  0
 16 12  2  0
M  END
$$$$

     RDKit          3D

 13 14  0  0  0  0  0  0  0  0999 V2000
   41.9500   37.2700   34.1150 C   0  0  0  0  0  0  0  0  0  0  0  0
   36.2440   35.3090   31.5420 C   0  0  0  0  0  0  0  0  0  0  0  0
   41.9510   36.3580   32.0050 C   0  0  0  0  0  0  0  0  0  0  0  0
   38.1440   36.2660   32.0090 C   0  0  0  0  0  0  0  0  0  0  0  0
   39.4190   36.8450   31.6550 N   0  0  0  0  0  0  0  0  0  0  0  0
   40.5760   37.0600   33.7280 N   0  0  0  0  0  0  0  0  0  0  0  0
   42.7480   38.6040   31.5210 C   0  0  0  0  0  0  0  0  0  0  0  0
   40.5460   36.8540   32.4630 C   0  0  0  0  0  0  0  0  0  0  0  0
   36.4720   35.1310   32.9220 N   0  0  0  0  0  0  0  0  0  0  0  0
   42.6340   37.5110   32.7100 C   0  0  0  0  0  0  0  0  0  0  0  0
   37.2930   35.9680   31.0540 N   0  0  0  0  0  0  0  0  0  0  0  0
   42.1660   39.8390   31.7360 C   0  0  0  0  0  0  0  0  0  0  0  0
   37.5730   35.7720   33.2320 C   0  0  0  0  0  0  0  0  0  0  0  0
  2  9  1  0
  3  8  1  0
  3 10  1  0
  4 13  1  0
  5  4  1  0
  5  8  1  0
  6  1  1  0
  7 12  1  0
  8  6  2  0
  9 13  2  0
 10  7  1  0
 10  1  1  0
 11  2  1  0
 11  4  2  0
M  END
$$$$

     RDKit          3D

 11 11  0  0  0  0  0  0  0  0999 V2000
   42.0280   37.6480   32.9180 C   0  0  0  0  0  0  0  0  0  0  0  0
   41.6930   37.2390   31.5060 C   0  0  0  0  0  0  0  0  0  0  0  0
   39.8110   37.5190   29.9130 C   0  0  0  0  0  0  0  0  0  0  0  0
   37.9410   37.3360   32.0100 C   0  0  0  0  0  0  0  0  0  0  0  0
   38.5190   37.9790   29.6320 C   0  0  0  0  0  0  0  0  0  0  0  0
   39.3940   37.4960   32.2650 N   0  0  0  0  0  0  0  0  0  0  0  0
   37.5710   37.9090   30.6560 C   0  0  0  0  0  0  0  0  0  0  0  0
   43.4480   37.7020   32.9650 N   0  0  0  0  0  0  0  0  0  0  0  0
   40.2200   37.4020   31.2330 C   0  0  0  0  0  0  0  0  0  0  0  0
   43.9250   38.9510   32.3590 C   0  0  0  0  0  0  0  0  0  0  0  0
   42.5380   36.1490   31.0860 N   0  0  0  0  0  0  0  0  0  0  0  0
  1  8  1  0
  2 11  1  0
  2  1  1  0
  3  9  2  0
  4  6  1  0
  5  3  1  0
  5  7  2  0
  7  4  1  0
  9  2  1  0
  9  6  1  0
 10  8  1  0
M  END
$$$$

     RDKit          3D

 24 24  0  0  0  0  0  0  0  0999 V2000
   45.2120   40.2650   30.4390 C   0  0  0  0  0  0  0  0  0  0  0  0
   38.5320   35.8230   32.1310 C   0  0  0  0  0  0  0  0  0  0  0  0
   46.9110   41.4950   31.5830 O   0  0  0  0  0  0  0  0  0  0  0  0
   32.9000   33.8440   33.0080 C   0  0  0  0  0  0  0  0  0  0  0  0
   45.1670   38.9010   29.7870 C   0  0  0  0  0  0  0  0  0  0  0  0
   34.4250   33.9110   33.2640 C   0  0  0  0  0  0  0  0  0  0  0  0
   45.8980   37.8420   30.5800 C   0  0  0  0  0  0  0  0  0  0  0  0
   33.8400   35.7820   31.5960 C   0  0  0  0  0  0  0  0  0  0  0  0
   40.6730   35.8580   31.4980 N   0  0  0  0  0  0  0  0  0  0  0  0
   43.6180   38.7500   33.6170 C   0  0  0  0  0  0  0  0  0  0  0  0
   32.2740   33.7520   32.1600 O   0  0  0  0  0  0  0  0  0  0  0  0
   34.7020   35.3120   32.7650 C   0  0  0  0  0  0  0  0  0  0  0  0
   44.6640   39.8310   31.7600 C   0  0  0  0  0  0  0  0  0  0  0  0
   37.9060   36.8490   31.5860 N   0  0  0  0  0  0  0  0  0  0  0  0
   46.3150   41.3210   30.9880 C   0  0  0  0  0  0  0  0  0  0  0  0
   43.6740   38.8330   31.9680 N   0  0  0  0  0  0  0  0  0  0  0  0
   39.7550   35.4960   31.8800 C   0  0  0  0  0  0  0  0  0  0  0  0
   37.4020   34.9240   33.0170 S   0  0  0  0  0  0  0  0  0  0  0  0
   36.5320   36.8330   31.8740 C   0  0  0  0  0  0  0  0  0  0  0  0
   36.1550   35.7430   32.5370 C   0  0  0  0  0  0  0  0  0  0  0  0
   42.0160   35.7960   30.9580 C   0  0  0  0  0  0  0  0  0  0  0  0
   43.9580   37.4290   31.7200 C   0  0  0  0  0  0  0  0  0  0  0  0
   32.4140   34.1400   34.2900 O   0  0  0  0  0  0  0  0  0  0  0  0
   42.9140   36.6010   31.8310 C   0  0  0  0  0  0  0  0  0  0  0  0
  1  5  1  0
  1 15  1  0
  1 13  1  0
  2 18  1  0
  4  6  1  0
  4 23  1  0
  5  7  1  0
  9 17  1  0
 11  4  2  0
 12  8  1  0
 12  6  1  0
 13 16  1  0
 14 19  1  0
 14  2  2  0
 15  3  2  0
 16 10  1  0
 17  2  1  0
 19 20  2  0
 20 12  1  0
 20 18  1  0
 21  9  1  0
 21 24  1  0
 22 24  1  0
 22 16  1  0
M  END
$$$$

     RDKit          3D

 21 22  0  0  0  0  0  0  0  0999 V2000
   35.1750   34.1140   32.2540 C   0  0  0  0  0  0  0  0  0  0  0  0
   35.7980   33.0980   33.9750 N   0  0  0  0  0  0  0  0  0  0  0  0
   41.7940   38.3230   30.6440 C   0  0  0  0  0  0  0  0  0  0  0  0
   36.3050   34.0490   33.2040 C   0  0  0  0  0  0  0  0  0  0  0  0
   34.1780   34.9990   32.9630 O   0  0  0  0  0  0  0  0  0  0  0  0
   39.9690   36.5550   34.2430 C   0  0  0  0  0  0  0  0  0  0  0  0
   38.2450   35.0250   33.7110 C   0  0  0  0  0  0  0  0  0  0  0  0
   43.8390   39.0770   31.8540 C   0  0  0  0  0  0  0  0  0  0  0  0
   41.9640   37.1340   32.7740 C   0  0  0  0  0  0  0  0  0  0  0  0
   35.1240   32.6500   31.8350 C   0  0  0  0  0  0  0  0  0  0  0  0
   43.8560   36.8260   31.3700 C   0  0  0  0  0  0  0  0  0  0  0  0
   41.9120   35.7220   32.1600 C   0  0  0  0  0  0  0  0  0  0  0  0
   42.8030   37.9160   31.7450 C   0  0  0  0  0  0  0  0  0  0  0  0
   36.9410   34.4900   34.3560 C   0  0  0  0  0  0  0  0  0  0  0  0
   38.5720   36.2200   33.8360 C   0  0  0  0  0  0  0  0  0  0  0  0
   43.3030   35.4990   31.7810 C   0  0  0  0  0  0  0  0  0  0  0  0
   40.1990   38.7650   33.5920 O   0  0  0  0  0  0  0  0  0  0  0  0
   33.1070   32.3720   30.6240 C   0  0  0  0  0  0  0  0  0  0  0  0
   35.3370   31.1570   29.8770 C   0  0  0  0  0  0  0  0  0  0  0  0
   34.6100   32.1900   30.5030 C   0  0  0  0  0  0  0  0  0  0  0  0
   40.5150   37.4350   33.1480 C   0  0  0  0  0  0  0  0  0  0  0  0
  1  5  1  0
  2 14  1  0
  3 13  1  0
  4  1  1  0
  4  2  1  0
  4 14  1  0
  7 15  1  0
  9 21  1  0
 10  1  1  0
 11 13  1  0
 11 16  1  0
 12  9  1  0
 13  8  1  0
 13  9  1  0
 14  7  1  0
 15  6  1  0
 16 12  1  0
 19 20  1  0
 20 18  1  0
 20 10  1  0
 21 17  1  0
 21  6  1  0
M  END
$$$$

     RDKit          3D

 15 15  0  0  0  0  0  0  0  0999 V2000
   40.8160   39.0650   33.9630 C   0  0  0  0  0  0  0  0  0  0  0  0
   40.7590   34.8520   30.4800 C   0  0  0  0  0  0  0  0  0  0  0  0
   41.5250   40.4690   27.8650 O   0  0  0  0  0  0  0  0  0  0  0  0
   39.7090   35.6280   30.9570 C   0  0  0  0  0  0  0  0  0  0  0  0
   41.9640   39.2900   34.3190 O   0  0  0  0  0  0  0  0  0  0  0  0
   41.0300   39.5260   31.4680 C   0  0  0  0  0  0  0  0  0  0  0  0
   40.5340   38.7070   32.5430 C   0  0  0  0  0  0  0  0  0  0  0  0
   39.9340   39.3560   34.7590 O   0  0  0  0  0  0  0  0  0  0  0  0
   41.8270   34.4340   31.2270 C   0  0  0  0  0  0  0  0  0  0  0  0
   40.7110   37.7530   30.0250 C   0  0  0  0  0  0  0  0  0  0  0  0
   40.2220   37.1150   31.0230 C   0  0  0  0  0  0  0  0  0  0  0  0
   42.0080   41.6780   28.3810 C   0  0  0  0  0  0  0  0  0  0  0  0
   39.9580   37.5470   32.2750 C   0  0  0  0  0  0  0  0  0  0  0  0
   41.8580   39.3340   28.5910 C   0  0  0  0  0  0  0  0  0  0  0  0
   41.1780   39.1560   30.0040 C   0  0  0  0  0  0  0  0  0  0  0  0
  1  5  2  0
  1  8  1  0
  2  4  1  0
  2  9  2  0
  3 12  1  0
  3 14  1  0
  4 11  1  0
  6  7  1  0
  7  1  1  0
 10 11  2  0
 11 13  1  0
 13  7  2  0
 14 15  1  0
 15 10  1  0
 15  6  2  0
M  END
$$$$
