
     RDKit          3D

  7  7  0  0  0  0  0  0  0  0999 V2000
   35.3780   38.8840   23.9960 C   0  0  0  0  0  0  0  0  0  0  0  0
   34.9640   40.3190   23.4610 C   0  0  0  0  0  0  0  0  0  0  0  0
   34.3350   36.8100   23.2040 O   0  0  0  0  0  0  0  0  0  0  0  0
   33.6760   39.4720   23.8570 C   0  0  0  0  0  0  0  0  0  0  0  0
   35.0230   37.6550   21.0710 C   0  0  0  0  0  0  0  0  0  0  0  0
   34.9280   37.7240   22.6320 C   0  0  0  0  0  0  0  0  0  0  0  0
   35.6840   38.7030   25.0930 N   0  0  0  0  0  0  0  0  0  0  0  0
  1  7  1  0
  2  4  1  0
  2  1  1  0
  4  1  1  0
  5  6  1  0
  6  3  2  0
  6  1  1  0
M  END
$$$$

     RDKit          3D

 30 31  0  0  0  0  0  0  0  0999 V2000
   35.3160   41.9790   23.9410 C   0  0  0  0  0  0  0  0  0  0  0  0
   36.3950   42.3770   25.5690 C   0  0  0  0  0  0  0  0  0  0  0  0
   36.3600   41.1320   26.0410 N   0  0  0  0  0  0  0  0  0  0  0  0
   34.3020   38.6310   22.3200 O   0  0  0  0  0  0  0  0  0  0  0  0
   35.5010   32.9190   31.5590 C   0  0  0  0  0  0  0  0  0  0  0  0
   35.7650   38.5340   29.6460 N   0  0  0  0  0  0  0  0  0  0  0  0
   35.5060   42.9780   24.7990 N   0  0  0  0  0  0  0  0  0  0  0  0
   36.7000   41.3840   27.4080 C   0  0  0  0  0  0  0  0  0  0  0  0
   33.8110   41.3950   23.9070 C   0  0  0  0  0  0  0  0  0  0  0  0
   34.2910   34.1960   29.5990 C   0  0  0  0  0  0  0  0  0  0  0  0
   36.1050   40.7990   30.3740 N   0  0  0  0  0  0  0  0  0  0  0  0
   35.4790   37.9660   30.8050 N   0  0  0  0  0  0  0  0  0  0  0  0
   35.6440   37.5730   28.5960 C   0  0  0  0  0  0  0  0  0  0  0  0
   36.1980   41.0030   22.0050 C   0  0  0  0  0  0  0  0  0  0  0  0
   36.7690   37.7720   22.7560 O   0  0  0  0  0  0  0  0  0  0  0  0
   37.1350   40.1750   28.2390 C   0  0  0  0  0  0  0  0  0  0  0  0
   37.6650   42.5760   27.5320 C   0  0  0  0  0  0  0  0  0  0  0  0
   36.4740   39.7820   21.8380 C   0  0  0  0  0  0  0  0  0  0  0  0
   34.4810   32.9850   30.4190 C   0  0  0  0  0  0  0  0  0  0  0  0
   36.1970   41.5930   23.2410 N   0  0  0  0  0  0  0  0  0  0  0  0
   36.6460   34.4400   29.0720 O   0  0  0  0  0  0  0  0  0  0  0  0
   37.1650   43.4290   26.3590 C   0  0  0  0  0  0  0  0  0  0  0  0
   36.2420   39.8960   29.4610 C   0  0  0  0  0  0  0  0  0  0  0  0
   35.5290   34.9820   29.1030 C   0  0  0  0  0  0  0  0  0  0  0  0
   35.6280   38.2750   21.9560 P   0  0  0  0  0  0  0  0  0  0  0  0
   33.3100   34.6520   28.7050 F   0  0  0  0  0  0  0  0  0  0  0  0
   35.1340   36.7640   30.6180 N   0  0  0  0  0  0  0  0  0  0  0  0
   35.2840   36.4390   29.3250 C   0  0  0  0  0  0  0  0  0  0  0  0
   35.1760   31.8490   32.5880 C   0  0  0  0  0  0  0  0  0  0  0  0
   35.5280   37.5180   20.5880 O   0  0  0  0  0  0  0  0  0  0  0  0
  1  9  1  0
  1  7  1  0
  2  3  2  0
  2 22  1  0
  3  8  1  0
  5 29  1  0
  6 12  1  0
  7  2  1  0
  8 17  1  0
  8 16  1  0
 10 26  1  0
 10 19  1  0
 13 28  2  0
 13  6  1  0
 14 20  1  0
 16 23  1  0
 18 25  1  0
 18 14  1  0
 19  5  1  0
 20  1  1  0
 21 24  2  0
 22 17  1  0
 23  6  1  0
 23 11  2  0
 24 28  1  0
 24 10  1  0
 25  4  1  0
 25 15  1  0
 27 12  2  0
 28 27  1  0
 30 25  2  0
M  END
$$$$

     RDKit          3D

 14 13  0  0  0  0  0  0  0  0999 V2000
   35.3560   42.5810   26.9370 C   0  0  0  0  0  0  0  0  0  0  0  0
   35.7600   37.8370   29.2670 O   0  0  0  0  0  0  0  0  0  0  0  0
   35.5880   42.0220   25.7000 C   0  0  0  0  0  0  0  0  0  0  0  0
   36.0560   36.9540   25.1570 O   0  0  0  0  0  0  0  0  0  0  0  0
   34.7230   42.3010   24.4600 C   0  0  0  0  0  0  0  0  0  0  0  0
   36.4550   38.9740   27.4300 C   0  0  0  0  0  0  0  0  0  0  0  0
   34.4430   37.6840   27.4390 O   0  0  0  0  0  0  0  0  0  0  0  0
   36.2130   40.6150   25.4620 C   0  0  0  0  0  0  0  0  0  0  0  0
   36.3340   39.1830   25.9870 C   0  0  0  0  0  0  0  0  0  0  0  0
   37.4710   40.9370   24.9540 O   0  0  0  0  0  0  0  0  0  0  0  0
   37.2840   38.2880   24.0090 O   0  0  0  0  0  0  0  0  0  0  0  0
   35.3950   38.1610   28.0910 C   0  0  0  0  0  0  0  0  0  0  0  0
   33.8950   43.5410   24.4250 C   0  0  0  0  0  0  0  0  0  0  0  0
   36.6040   38.0800   25.0250 C   0  0  0  0  0  0  0  0  0  0  0  0
  3  1  2  0
  5  3  1  0
  6 12  1  0
  7 12  2  0
  8 10  1  0
  8  3  1  0
  8  9  1  0
  9  6  1  0
 11 14  2  0
 12  2  1  0
 13  5  1  0
 14  4  1  0
 14  9  1  0
M  END
$$$$

     RDKit          3D

 13 13  0  0  0  0  0  0  0  0999 V2000
   34.7490   38.0630   23.6570 C   0  0  0  0  0  0  0  0  0  0  0  0
   31.1690   38.2520   23.3150 N   0  0  0  0  0  0  0  0  0  0  0  0
   32.5780   40.9250   22.2390 C   0  0  0  0  0  0  0  0  0  0  0  0
   35.6590   36.7270   25.5620 C   0  0  0  0  0  0  0  0  0  0  0  0
   34.7620   37.8330   25.0840 C   0  0  0  0  0  0  0  0  0  0  0  0
   32.5120   38.6610   25.3080 C   0  0  0  0  0  0  0  0  0  0  0  0
   37.0010   37.1510   25.8560 C   0  0  0  0  0  0  0  0  0  0  0  0
   32.3830   38.5590   23.8520 C   0  0  0  0  0  0  0  0  0  0  0  0
   33.9030   38.4710   25.8070 C   0  0  0  0  0  0  0  0  0  0  0  0
   37.9410   36.9790   25.0950 O   0  0  0  0  0  0  0  0  0  0  0  0
   33.6110   38.8350   23.1270 C   0  0  0  0  0  0  0  0  0  0  0  0
   33.5920   39.8110   22.1330 O   0  0  0  0  0  0  0  0  0  0  0  0
   37.0590   37.9960   26.9620 N   0  0  0  0  0  0  0  0  0  0  0  0
  1  5  2  0
  4  7  1  0
  5  4  1  0
  5  9  1  0
  6  9  1  0
  7 13  1  0
  8  2  1  0
  8  6  1  0
 10  7  2  0
 11 12  1  0
 11  1  1  0
 11  8  1  0
 12  3  1  0
M  END
$$$$

     RDKit          3D

 10  9  0  0  0  0  0  0  0  0999 V2000
   35.5750   38.5250   23.7950 C   0  0  0  0  0  0  0  0  0  0  0  0
   35.7000   38.3180   22.3310 C   0  0  0  0  0  0  0  0  0  0  0  0
   33.3990   40.9340   23.1700 O   0  0  0  0  0  0  0  0  0  0  0  0
   35.0180   37.5790   24.3670 O   0  0  0  0  0  0  0  0  0  0  0  0
   33.7770   40.3860   22.0460 C   0  0  0  0  0  0  0  0  0  0  0  0
   34.1870   37.9080   22.0240 C   0  0  0  0  0  0  0  0  0  0  0  0
   35.8300   39.6150   24.3630 O   0  0  0  0  0  0  0  0  0  0  0  0
   31.9810   38.9030   22.6780 C   0  0  0  0  0  0  0  0  0  0  0  0
   34.2210   41.0600   21.1450 O   0  0  0  0  0  0  0  0  0  0  0  0
   33.2290   39.0280   21.7900 C   0  0  0  0  0  0  0  0  0  0  0  0
  1  7  2  0
  1  4  1  0
  2  1  1  0
  5  3  1  0
  6  2  1  0
  9  5  2  0
 10  6  1  0
 10  5  1  0
 10  8  1  0
M  END
$$$$

     RDKit          3D

 10 12  0  0  0  0  0  0  0  0999 V2000
   36.7330   38.9310   23.7110 C   0  0  0  0  0  0  0  0  0  0  0  0
   36.0980   40.8420   22.0740 O   0  0  0  0  0  0  0  0  0  0  0  0
   33.5450   40.1400   23.8420 O   0  0  0  0  0  0  0  0  0  0  0  0
   34.7320   40.9450   24.3990 C   0  0  0  0  0  0  0  0  0  0  0  0
   34.6310   38.1960   22.4890 C   0  0  0  0  0  0  0  0  0  0  0  0
   35.5310   37.5420   21.4770 C   0  0  0  0  0  0  0  0  0  0  0  0
   35.9710   40.2520   23.4590 C   0  0  0  0  0  0  0  0  0  0  0  0
   33.8870   37.1920   23.0680 O   0  0  0  0  0  0  0  0  0  0  0  0
   34.1440   38.1830   21.2190 O   0  0  0  0  0  0  0  0  0  0  0  0
   34.7200   39.4540   23.5130 C   0  0  0  0  0  0  0  0  0  0  0  0
  2  7  1  0
  4  3  1  0
  5  8  1  0
  5 10  1  0
  6  5  1  0
  7 10  1  0
  7  1  1  0
  7  4  1  0
  9  6  1  0
  9  5  1  0
 10  3  1  0
 10  4  1  0
M  END
$$$$

     RDKit          3D

 13 13  0  0  0  0  0  0  0  0999 V2000
   36.4900   36.8390   25.2300 O   0  0  0  0  0  0  0  0  0  0  0  0
   36.2520   43.5000   22.1090 O   0  0  0  0  0  0  0  0  0  0  0  0
   37.1690   39.5000   26.0610 O   0  0  0  0  0  0  0  0  0  0  0  0
   33.6140   39.8270   23.6550 O   0  0  0  0  0  0  0  0  0  0  0  0
   34.9750   38.0780   24.0260 N   0  0  0  0  0  0  0  0  0  0  0  0
   36.9050   39.1900   24.7170 C   0  0  0  0  0  0  0  0  0  0  0  0
   36.1130   37.8950   24.7080 C   0  0  0  0  0  0  0  0  0  0  0  0
   34.7690   39.3540   23.8740 C   0  0  0  0  0  0  0  0  0  0  0  0
   37.6510   41.9110   23.5910 O   0  0  0  0  0  0  0  0  0  0  0  0
   35.3210   42.5580   22.6040 C   0  0  0  0  0  0  0  0  0  0  0  0
   35.6210   42.3250   25.0720 O   0  0  0  0  0  0  0  0  0  0  0  0
   36.1840   41.7800   23.7320 S   0  0  0  0  0  0  0  0  0  0  0  0
   35.9840   40.1800   24.0280 C   0  0  0  0  0  0  0  0  0  0  0  0
  2 10  1  0
  4  8  2  0
  5  7  1  0
  6  3  1  0
  7  6  1  0
  7  1  2  0
  8  5  1  0
  8 13  1  0
  9 12  2  0
 10 12  1  0
 12 11  2  0
 13 12  1  0
 13  6  1  0
M  END
$$$$

     RDKit          3D

 12 13  0  0  0  0  0  0  0  0999 V2000
   36.6110   42.3020   21.4130 C   0  0  0  0  0  0  0  0  0  0  0  0
   33.8210   37.7070   24.7940 O   0  0  0  0  0  0  0  0  0  0  0  0
   33.8120   37.5040   27.2330 C   0  0  0  0  0  0  0  0  0  0  0  0
   35.9080   42.9280   23.0160 C   0  0  0  0  0  0  0  0  0  0  0  0
   35.0860   39.3330   26.3570 O   0  0  0  0  0  0  0  0  0  0  0  0
   35.7000   41.5120   22.3050 C   0  0  0  0  0  0  0  0  0  0  0  0
   32.3940   38.1760   26.9740 O   0  0  0  0  0  0  0  0  0  0  0  0
   35.8190   40.6460   23.0790 C   0  0  0  0  0  0  0  0  0  0  0  0
   34.8080   38.8030   24.3960 N   0  0  0  0  0  0  0  0  0  0  0  0
   36.6650   39.4560   23.3690 C   0  0  0  0  0  0  0  0  0  0  0  0
   34.4560   38.2900   25.7320 P   0  0  0  0  0  0  0  0  0  0  0  0
   35.8240   38.2500   23.4170 C   0  0  0  0  0  0  0  0  0  0  0  0
  1  6  1  0
  1  4  1  0
  2 11  1  0
  6  4  1  0
  6  8  1  0
  7  3  1  0
  8 10  1  0
  9  2  1  0
  9 11  1  0
 10 12  1  0
 11  5  2  0
 11  3  1  0
 12  9  1  0
M  END
$$$$

     RDKit          3D

 23 22  0  0  0  0  0  0  0  0999 V2000
   33.3940   31.8700   29.8520 C   0  0  0  0  0  0  0  0  0  0  0  0
   36.2360   36.9400   26.9740 C   0  0  0  0  0  0  0  0  0  0  0  0
   37.3260   42.1760   23.7250 O   0  0  0  0  0  0  0  0  0  0  0  0
   36.7830   38.4710   26.8190 C   0  0  0  0  0  0  0  0  0  0  0  0
   36.4010   39.7690   26.0310 C   0  0  0  0  0  0  0  0  0  0  0  0
   34.8700   37.1560   27.2500 O   0  0  0  0  0  0  0  0  0  0  0  0
   36.2360   41.1820   26.6170 N   0  0  0  0  0  0  0  0  0  0  0  0
   34.6660   36.9630   28.6310 C   0  0  0  0  0  0  0  0  0  0  0  0
   34.5250   41.8140   24.9570 C   0  0  0  0  0  0  0  0  0  0  0  0
   32.5380   30.7810   30.2110 N   0  0  0  0  0  0  0  0  0  0  0  0
   35.3930   32.6840   30.1630 C   0  0  0  0  0  0  0  0  0  0  0  0
   36.7880   32.7110   30.5050 C   0  0  0  0  0  0  0  0  0  0  0  0
   36.5220   35.5960   27.6570 C   0  0  0  0  0  0  0  0  0  0  0  0
   34.6970   33.9520   30.2510 C   0  0  0  0  0  0  0  0  0  0  0  0
   33.7810   35.7470   28.7660 C   0  0  0  0  0  0  0  0  0  0  0  0
   35.8070   42.2750   25.7220 C   0  0  0  0  0  0  0  0  0  0  0  0
   34.1850   42.3200   23.8380 O   0  0  0  0  0  0  0  0  0  0  0  0
   34.3620   34.5330   28.9300 C   0  0  0  0  0  0  0  0  0  0  0  0
   36.9910   42.8570   24.8730 C   0  0  0  0  0  0  0  0  0  0  0  0
   34.6540   31.5970   30.2430 N   0  0  0  0  0  0  0  0  0  0  0  0
   33.9560   40.6410   25.2140 O   0  0  0  0  0  0  0  0  0  0  0  0
   38.2890   43.0740   25.7080 C   0  0  0  0  0  0  0  0  0  0  0  0
   32.6670   36.2060   29.7090 C   0  0  0  0  0  0  0  0  0  0  0  0
  1 10  1  0
  1 20  1  0
  2  6  1  0
  2 13  1  0
  3 19  1  0
  4  2  1  0
  5  7  2  3
  5  4  1  0
  6  8  1  0
  8 15  1  0
  9 21  1  0
 11 20  1  0
 11 14  1  0
 11 12  1  0
 15 18  1  0
 15 23  1  0
 16  9  1  0
 16  7  1  0
 17  9  2  0
 18 14  1  0
 19 22  1  0
 19 16  1  0
M  END
$$$$

     RDKit          3D

 15 16  0  0  0  0  0  0  0  0999 V2000
   31.5720   38.4900   23.9140 C   0  0  0  0  0  0  0  0  0  0  0  0
   36.8780   35.3130   25.7160 O   0  0  0  0  0  0  0  0  0  0  0  0
   35.5280   38.5290   26.3580 C   0  0  0  0  0  0  0  0  0  0  0  0
   37.6280   36.5490   26.0010 O   0  0  0  0  0  0  0  0  0  0  0  0
   34.7240   39.6610   26.0650 C   0  0  0  0  0  0  0  0  0  0  0  0
   35.3750   35.5680   27.7310 N   0  0  0  0  0  0  0  0  0  0  0  0
   33.6800   39.5100   25.0650 C   0  0  0  0  0  0  0  0  0  0  0  0
   36.0930   36.7280   27.6550 C   0  0  0  0  0  0  0  0  0  0  0  0
   32.8690   37.9080   23.3600 C   0  0  0  0  0  0  0  0  0  0  0  0
   33.2550   38.6540   22.3130 O   0  0  0  0  0  0  0  0  0  0  0  0
   36.6110   36.4020   26.3290 C   0  0  0  0  0  0  0  0  0  0  0  0
   34.9950   37.7760   27.6870 C   0  0  0  0  0  0  0  0  0  0  0  0
   32.8670   38.3770   24.6780 C   0  0  0  0  0  0  0  0  0  0  0  0
   33.9720   39.9430   27.3630 O   0  0  0  0  0  0  0  0  0  0  0  0
   33.3710   40.4220   24.4940 N   0  0  0  0  0  0  0  0  0  0  0  0
  1 13  1  0
  2  4  1  0
  2 11  1  0
  3 12  1  0
  4 11  1  0
  5  3  1  0
  5 14  1  0
  7  5  1  0
  8 12  1  0
  8  6  1  0
  9 10  1  0
  9  1  1  0
  9 13  1  0
 11  8  1  0
 13  7  1  0
 15  7  2  0
M  END
$$$$

     RDKit          3D

  6  5  0  0  0  0  0  0  0  0999 V2000
   35.6060   34.2600   28.6790 C   0  0  0  0  0  0  0  0  0  0  0  0
   37.6060   34.8600   27.3740 O   0  0  0  0  0  0  0  0  0  0  0  0
   38.1110   33.9970   27.9220 O   0  0  0  0  0  0  0  0  0  0  0  0
   36.2350   34.1870   27.2800 P   0  0  0  0  0  0  0  0  0  0  0  0
   36.7220   32.7890   26.7780 O   0  0  0  0  0  0  0  0  0  0  0  0
   35.4690   34.8630   26.2100 O   0  0  0  0  0  0  0  0  0  0  0  0
  2  3  1  0
  4  2  1  0
  4  1  1  0
  5  4  1  0
  6  4  2  0
M  END
$$$$

     RDKit          3D

  8  7  0  0  0  0  0  0  0  0999 V2000
   34.1330   38.5110   24.4720 O   0  0  0  0  0  0  0  0  0  0  0  0
   34.5250   39.3270   23.5420 C   0  0  0  0  0  0  0  0  0  0  0  0
   33.8670   40.3430   23.0300 O   0  0  0  0  0  0  0  0  0  0  0  0
   36.4480   40.5830   22.8020 C   0  0  0  0  0  0  0  0  0  0  0  0
   35.7520   41.0890   21.6870 O   0  0  0  0  0  0  0  0  0  0  0  0
   35.9330   39.1900   23.0940 C   0  0  0  0  0  0  0  0  0  0  0  0
   36.5350   41.3120   23.7530 O   0  0  0  0  0  0  0  0  0  0  0  0
   36.6700   38.2750   23.5740 N   0  0  0  0  0  0  0  0  0  0  0  0
  2  1  1  0
  3  2  2  0
  4  6  1  0
  4  7  1  0
  5  4  1  0
  6  2  1  0
  6  8  2  0
M  END
$$$$

     RDKit          3D

  9  8  0  0  0  0  0  0  0  0999 V2000
   34.9870   40.4460   22.5990 N   0  0  0  0  0  0  0  0  0  0  0  0
   35.0160   40.1170   23.8970 C   0  0  0  0  0  0  0  0  0  0  0  0
   34.1090   38.0930   24.9100 C   0  0  0  0  0  0  0  0  0  0  0  0
   33.7150   40.6280   21.9460 C   0  0  0  0  0  0  0  0  0  0  0  0
   35.2820   38.1080   22.8880 C   0  0  0  0  0  0  0  0  0  0  0  0
   34.3380   41.0450   24.8090 C   0  0  0  0  0  0  0  0  0  0  0  0
   34.0510   40.9440   20.8020 O   0  0  0  0  0  0  0  0  0  0  0  0
   36.6010   38.6520   24.5790 C   0  0  0  0  0  0  0  0  0  0  0  0
   35.2250   38.6750   24.0650 C   0  0  0  0  0  0  0  0  0  0  0  0
  1  2  1  0
  2  9  1  0
  2  6  1  0
  4  1  1  0
  5  9  1  0
  7  4  1  0
  9  8  1  0
  9  3  1  0
M  END
$$$$

     RDKit          3D

 13 13  0  0  0  0  0  0  0  0999 V2000
   37.6440   40.4810   23.9400 C   0  0  0  0  0  0  0  0  0  0  0  0
   36.5370   42.5180   22.9770 C   0  0  0  0  0  0  0  0  0  0  0  0
   34.1150   43.1830   23.3780 C   0  0  0  0  0  0  0  0  0  0  0  0
   35.1230   43.0230   22.8740 C   0  0  0  0  0  0  0  0  0  0  0  0
   34.6600   37.9460   21.9770 N   0  0  0  0  0  0  0  0  0  0  0  0
   33.0380   41.3180   22.5610 N   0  0  0  0  0  0  0  0  0  0  0  0
   32.7510   42.5610   22.9460 C   0  0  0  0  0  0  0  0  0  0  0  0
   37.8490   43.0200   23.3350 O   0  0  0  0  0  0  0  0  0  0  0  0
   36.3150   41.1270   23.5600 C   0  0  0  0  0  0  0  0  0  0  0  0
   35.4470   40.3060   22.6240 C   0  0  0  0  0  0  0  0  0  0  0  0
   34.1050   40.8830   22.6330 C   0  0  0  0  0  0  0  0  0  0  0  0
   37.4830   39.2150   24.4440 O   0  0  0  0  0  0  0  0  0  0  0  0
   35.2680   38.7740   22.8090 C   0  0  0  0  0  0  0  0  0  0  0  0
  1 12  1  0
  2  8  1  0
  2  9  1  0
  4  2  1  0
  4  3  1  0
  5 13  2  0
  6 11  1  0
  6  7  1  0
  7  3  1  0
  9  1  1  0
 10 11  1  0
 10 13  1  0
 10  9  1  0
M  END
$$$$

     RDKit          3D

  9  9  0  0  0  0  0  0  0  0999 V2000
   34.5970   41.6220   24.5950 O   0  0  0  0  0  0  0  0  0  0  0  0
   36.9570   37.7960   22.0010 O   0  0  0  0  0  0  0  0  0  0  0  0
   37.7600   42.0740   23.5620 O   0  0  0  0  0  0  0  0  0  0  0  0
   35.3540   39.4080   21.7040 N   0  0  0  0  0  0  0  0  0  0  0  0
   36.8260   40.9590   23.8170 C   0  0  0  0  0  0  0  0  0  0  0  0
   36.5230   38.9250   22.0640 C   0  0  0  0  0  0  0  0  0  0  0  0
   37.3390   39.9240   22.8340 C   0  0  0  0  0  0  0  0  0  0  0  0
   34.6920   40.4020   22.4670 C   0  0  0  0  0  0  0  0  0  0  0  0
   35.3030   41.0420   23.5680 C   0  0  0  0  0  0  0  0  0  0  0  0
  2  6  2  0
  4  6  1  0
  4  8  2  0
  5  3  1  0
  6  7  1  0
  7  5  1  0
  8  9  1  0
  9  5  1  0
  9  1  1  0
M  END
$$$$

     RDKit          3D

 18 18  0  0  0  0  0  0  0  0999 V2000
   36.7510   38.9780   24.8660 C   0  0  0  0  0  0  0  0  0  0  0  0
   37.2170   36.5710   24.6680 O   0  0  0  0  0  0  0  0  0  0  0  0
   35.9470   37.4290   26.4010 N   0  0  0  0  0  0  0  0  0  0  0  0
   33.6680   36.7940   29.3740 C   0  0  0  0  0  0  0  0  0  0  0  0
   37.8150   39.1270   24.0790 O   0  0  0  0  0  0  0  0  0  0  0  0
   36.4980   37.6190   25.2740 C   0  0  0  0  0  0  0  0  0  0  0  0
   38.3060   42.4210   27.5020 O   0  0  0  0  0  0  0  0  0  0  0  0
   34.1750   37.0050   27.9490 C   0  0  0  0  0  0  0  0  0  0  0  0
   34.6800   35.9040   30.0880 C   0  0  0  0  0  0  0  0  0  0  0  0
   32.2990   36.1260   29.4440 C   0  0  0  0  0  0  0  0  0  0  0  0
   36.0290   40.2360   27.2150 C   0  0  0  0  0  0  0  0  0  0  0  0
   37.8120   42.4850   25.8700 C   0  0  0  0  0  0  0  0  0  0  0  0
   33.9820   35.0840   31.0570 N   0  0  0  0  0  0  0  0  0  0  0  0
   36.5910   40.0590   25.8230 C   0  0  0  0  0  0  0  0  0  0  0  0
   37.4390   41.1730   25.6590 O   0  0  0  0  0  0  0  0  0  0  0  0
   35.0230   37.8730   27.3960 C   0  0  0  0  0  0  0  0  0  0  0  0
   39.2820   42.7960   25.3610 C   0  0  0  0  0  0  0  0  0  0  0  0
   34.8510   39.3840   27.5700 C   0  0  0  0  0  0  0  0  0  0  0  0
  1  5  1  0
  1  6  1  0
  1 14  1  0
  2  6  2  0
  3 16  1  0
  4 10  1  0
  4  9  1  0
  6  3  1  0
  8  4  1  0
  9 13  1  0
 11 18  1  0
 12 17  1  0
 12  7  1  0
 14 15  1  0
 14 11  1  0
 15 12  1  0
 16 18  1  0
 16  8  1  0
M  END
$$$$

     RDKit          3D

 19 19  0  0  0  0  0  0  0  0999 V2000
   36.4910   38.0950   27.7220 C   0  0  0  0  0  0  0  0  0  0  0  0
   36.1640   37.4980   24.4270 C   0  0  0  0  0  0  0  0  0  0  0  0
   36.3370   40.3790   24.6340 C   0  0  0  0  0  0  0  0  0  0  0  0
   33.4910   36.7200   31.1300 N   0  0  0  0  0  0  0  0  0  0  0  0
   36.0270   38.7060   26.4870 C   0  0  0  0  0  0  0  0  0  0  0  0
   36.2940   40.0370   22.9950 C   0  0  0  0  0  0  0  0  0  0  0  0
   34.5520   37.2170   28.9580 C   0  0  0  0  0  0  0  0  0  0  0  0
   37.0160   38.7530   22.7100 C   0  0  0  0  0  0  0  0  0  0  0  0
   33.2100   35.5550   31.7880 C   0  0  0  0  0  0  0  0  0  0  0  0
   36.8000   38.1400   25.3820 O   0  0  0  0  0  0  0  0  0  0  0  0
   35.7920   41.0820   27.3240 O   0  0  0  0  0  0  0  0  0  0  0  0
   31.8670   34.9340   32.0330 C   0  0  0  0  0  0  0  0  0  0  0  0
   35.7400   40.1500   26.2060 C   0  0  0  0  0  0  0  0  0  0  0  0
   35.5040   38.2980   28.7750 N   0  0  0  0  0  0  0  0  0  0  0  0
   35.1770   42.4770   24.3610 O   0  0  0  0  0  0  0  0  0  0  0  0
   34.0490   34.6600   31.8510 O   0  0  0  0  0  0  0  0  0  0  0  0
   34.6950   39.2300   26.6010 O   0  0  0  0  0  0  0  0  0  0  0  0
   36.4310   41.9200   24.6770 C   0  0  0  0  0  0  0  0  0  0  0  0
   34.7510   36.7860   30.3790 C   0  0  0  0  0  0  0  0  0  0  0  0
  1 14  1  0
  2 10  1  0
  3  6  1  0
  3 18  1  0
  3 13  1  0
  4  9  1  0
  5 17  1  0
  5  1  1  0
  7 19  1  0
  8  6  1  0
  9 16  2  0
  9 12  1  0
 10  5  1  0
 13  5  1  0
 13 17  1  0
 13 11  1  0
 14  7  1  0
 15 18  1  0
 19  4  1  0
M  END
$$$$

     RDKit          3D

 18 20  0  0  0  0  0  0  0  0999 V2000
   35.8200   43.2120   21.3730 C   0  0  0  0  0  0  0  0  0  0  0  0
   33.4790   38.7590   24.8150 C   0  0  0  0  0  0  0  0  0  0  0  0
   35.0160   40.8490   24.6300 C   0  0  0  0  0  0  0  0  0  0  0  0
   34.1970   38.8940   26.2980 C   0  0  0  0  0  0  0  0  0  0  0  0
   35.9070   42.0580   22.5850 C   0  0  0  0  0  0  0  0  0  0  0  0
   34.3340   43.2640   23.7430 C   0  0  0  0  0  0  0  0  0  0  0  0
   34.6870   38.4430   23.9230 C   0  0  0  0  0  0  0  0  0  0  0  0
   35.1620   37.6780   26.3040 C   0  0  0  0  0  0  0  0  0  0  0  0
   35.9120   43.5540   24.6850 C   0  0  0  0  0  0  0  0  0  0  0  0
   33.2070   38.5430   27.4980 C   0  0  0  0  0  0  0  0  0  0  0  0
   35.4870   39.7330   23.7480 C   0  0  0  0  0  0  0  0  0  0  0  0
   34.0740   43.9650   22.5790 C   0  0  0  0  0  0  0  0  0  0  0  0
   34.0340   37.7190   29.7330 N   0  0  0  0  0  0  0  0  0  0  0  0
   34.1190   37.8360   28.4040 C   0  0  0  0  0  0  0  0  0  0  0  0
   35.0260   36.9250   27.6090 C   0  0  0  0  0  0  0  0  0  0  0  0
   34.5760   40.4200   26.2030 C   0  0  0  0  0  0  0  0  0  0  0  0
   34.8900   44.1590   21.5540 C   0  0  0  0  0  0  0  0  0  0  0  0
   34.9450   42.1620   23.7940 C   0  0  0  0  0  0  0  0  0  0  0  0
  1 17  2  0
  1  5  1  0
  3 18  1  0
  3 16  1  0
  4  2  1  0
  4  8  1  0
  4 10  1  0
  5 18  2  0
  6 18  1  0
  6  9  1  0
  7  2  1  0
  8 15  1  0
 10 14  1  0
 11  7  1  0
 11  3  1  0
 12  6  1  0
 14 13  1  0
 15 14  1  0
 16  4  1  0
 17 12  1  0
M  END
$$$$

     RDKit          3D

 12 12  0  0  0  0  0  0  0  0999 V2000
   37.9870   39.0570   22.3420 C   0  0  0  0  0  0  0  0  0  0  0  0
   31.6390   39.7910   22.4190 O   0  0  0  0  0  0  0  0  0  0  0  0
   33.9510   38.9540   23.5580 C   0  0  0  0  0  0  0  0  0  0  0  0
   34.4830   37.7670   23.0920 C   0  0  0  0  0  0  0  0  0  0  0  0
   35.8940   37.7890   22.9210 C   0  0  0  0  0  0  0  0  0  0  0  0
   36.4860   38.9420   22.4760 C   0  0  0  0  0  0  0  0  0  0  0  0
   30.9820   40.4990   24.4510 N   0  0  0  0  0  0  0  0  0  0  0  0
   32.7340   39.0040   24.3990 C   0  0  0  0  0  0  0  0  0  0  0  0
   34.6040   40.1650   23.3340 C   0  0  0  0  0  0  0  0  0  0  0  0
   35.7670   40.1160   22.5750 C   0  0  0  0  0  0  0  0  0  0  0  0
   36.2730   41.5920   21.7690 Cl  0  0  0  0  0  0  0  0  0  0  0  0
   31.7320   39.7290   23.6600 N   0  0  0  0  0  0  0  0  0  0  0  0
  2 12  1  0
  3  8  1  0
  4  3  1  0
  5  4  1  0
  6  1  1  0
  6 10  1  0
  6  5  1  0
  9  3  2  0
 10 11  1  0
 10  9  1  0
 12  8  1  0
 12  7  1  0
M  END
$$$$

     RDKit          3D

 12 11  0  0  0  0  0  0  0  0999 V2000
   34.2390   39.0040   27.6690 C   0  0  0  0  0  0  0  0  0  0  0  0
   34.1800   37.7390   26.8170 C   0  0  0  0  0  0  0  0  0  0  0  0
   31.1150   34.7330   30.7580 S   0  0  0  0  0  0  0  0  0  0  0  0
   34.2310   35.2200   28.2010 N   0  0  0  0  0  0  0  0  0  0  0  0
   32.9260   37.0080   26.6400 C   0  0  0  0  0  0  0  0  0  0  0  0
   35.0990   37.7510   25.5930 C   0  0  0  0  0  0  0  0  0  0  0  0
   32.8760   35.4110   28.5990 C   0  0  0  0  0  0  0  0  0  0  0  0
   32.1150   36.5560   27.8690 C   0  0  0  0  0  0  0  0  0  0  0  0
   34.4260   38.9010   24.6230 C   0  0  0  0  0  0  0  0  0  0  0  0
   31.8450   34.5720   32.4800 C   0  0  0  0  0  0  0  0  0  0  0  0
   29.7370   34.2940   30.6820 N   0  0  0  0  0  0  0  0  0  0  0  0
   32.8800   34.9390   30.0700 C   0  0  0  0  0  0  0  0  0  0  0  0
  2  1  1  0
  3 10  1  0
  5  2  1  0
  5  8  1  0
  6  2  1  0
  7  4  1  0
  7 12  1  0
  8  7  1  0
  9  6  1  0
 11  3  2  0
 12  3  1  0
M  END
$$$$
