
     RDKit          3D

 15 15  0  0  0  0  0  0  0  0999 V2000
   37.7600   38.3800   30.1070 C   0  0  0  0  0  0  0  0  0  0  0  0
   35.3390   38.3480   30.0640 C   0  0  0  0  0  0  0  0  0  0  0  0
   33.9940   37.0870   31.8740 C   0  0  0  0  0  0  0  0  0  0  0  0
   38.6210   40.9290   26.7050 O   0  0  0  0  0  0  0  0  0  0  0  0
   35.6570   41.3540   27.1020 C   0  0  0  0  0  0  0  0  0  0  0  0
   37.9680   41.5770   27.5440 C   0  0  0  0  0  0  0  0  0  0  0  0
   38.3950   42.6580   27.9960 O   0  0  0  0  0  0  0  0  0  0  0  0
   34.6290   40.6670   26.9550 O   0  0  0  0  0  0  0  0  0  0  0  0
   36.5650   38.7660   29.5220 C   0  0  0  0  0  0  0  0  0  0  0  0
   37.7160   37.4140   31.1340 C   0  0  0  0  0  0  0  0  0  0  0  0
   36.6960   41.0140   28.1380 C   0  0  0  0  0  0  0  0  0  0  0  0
   35.2690   37.6050   31.3170 C   0  0  0  0  0  0  0  0  0  0  0  0
   36.7090   39.4650   28.2540 C   0  0  0  0  0  0  0  0  0  0  0  0
   35.9120   42.2720   26.1570 N   0  0  0  0  0  0  0  0  0  0  0  0
   36.4990   37.0360   31.7320 C   0  0  0  0  0  0  0  0  0  0  0  0
  1 10  1  0
  2 12  2  0
  4  6  2  0
  5 11  1  0
  6  7  1  0
  6 11  1  0
  8  5  2  0
  9  2  1  0
  9  1  2  0
 10 15  2  0
 11 13  1  0
 12 15  1  0
 12  3  1  0
 13  9  1  0
 14  5  1  0
M  END
$$$$

     RDKit          3D

  9  9  0  0  0  0  0  0  0  0999 V2000
   34.5090   38.3070   22.3750 C   0  0  0  0  0  0  0  0  0  0  0  0
   37.1750   41.9270   23.5150 C   0  0  0  0  0  0  0  0  0  0  0  0
   34.0850   39.9480   24.2900 C   0  0  0  0  0  0  0  0  0  0  0  0
   36.0330   40.9720   23.2140 C   0  0  0  0  0  0  0  0  0  0  0  0
   34.3910   42.5530   23.5030 O   0  0  0  0  0  0  0  0  0  0  0  0
   34.5370   41.1290   23.3480 C   0  0  0  0  0  0  0  0  0  0  0  0
   35.2910   37.8620   24.7420 O   0  0  0  0  0  0  0  0  0  0  0  0
   35.0360   38.8380   23.7370 C   0  0  0  0  0  0  0  0  0  0  0  0
   36.2820   39.5250   23.3720 N   0  0  0  0  0  0  0  0  0  0  0  0
  4  6  1  0
  4  9  1  0
  4  2  1  0
  6  5  1  0
  6  3  1  0
  8  1  1  0
  8  3  1  0
  8  7  1  0
  9  8  1  0
M  END
$$$$

     RDKit          3D

 10  9  0  0  0  0  0  0  0  0999 V2000
   35.8120   40.9360   23.6560 C   0  0  0  0  0  0  0  0  0  0  0  0
   36.0730   43.4650   23.7200 C   0  0  0  0  0  0  0  0  0  0  0  0
   36.9220   40.5130   22.6360 C   0  0  0  0  0  0  0  0  0  0  0  0
   36.0990   39.9680   24.6580 N   0  0  0  0  0  0  0  0  0  0  0  0
   33.4910   42.6320   24.8450 N   0  0  0  0  0  0  0  0  0  0  0  0
   38.0700   41.1360   22.6340 O   0  0  0  0  0  0  0  0  0  0  0  0
   35.3270   44.5030   22.9920 C   0  0  0  0  0  0  0  0  0  0  0  0
   34.7010   42.5150   25.4730 C   0  0  0  0  0  0  0  0  0  0  0  0
   36.7920   39.3280   22.2690 O   0  0  0  0  0  0  0  0  0  0  0  0
   35.6040   42.2740   24.2570 C   0  0  0  0  0  0  0  0  0  0  0  0
  1 10  1  0
  1  4  1  0
  3  1  1  0
  5  8  1  0
  6  3  1  0
  7  2  1  0
  9  3  2  0
 10  2  1  0
 10  8  1  0
M  END
$$$$

     RDKit          3D

 19 19  0  0  0  0  0  0  0  0999 V2000
   37.1280   36.0040   35.4040 C   0  0  0  0  0  0  0  0  0  0  0  0
   36.6220   39.3770   27.6540 C   0  0  0  0  0  0  0  0  0  0  0  0
   35.1140   40.3520   24.7770 C   0  0  0  0  0  0  0  0  0  0  0  0
   36.5660   39.1500   29.1200 C   0  0  0  0  0  0  0  0  0  0  0  0
   35.8060   39.1330   25.3200 C   0  0  0  0  0  0  0  0  0  0  0  0
   38.5640   36.0800   30.5190 C   0  0  0  0  0  0  0  0  0  0  0  0
   36.0970   35.4110   33.1660 C   0  0  0  0  0  0  0  0  0  0  0  0
   38.0250   35.9480   31.8600 N   0  0  0  0  0  0  0  0  0  0  0  0
   35.1400   34.9640   34.0360 C   0  0  0  0  0  0  0  0  0  0  0  0
   33.8690   40.5170   25.3770 O   0  0  0  0  0  0  0  0  0  0  0  0
   37.8620   37.3300   30.0380 C   0  0  0  0  0  0  0  0  0  0  0  0
   36.5220   35.1500   34.5410 N   0  0  0  0  0  0  0  0  0  0  0  0
   40.0750   36.2830   30.5660 C   0  0  0  0  0  0  0  0  0  0  0  0
   36.5590   37.6490   29.3390 C   0  0  0  0  0  0  0  0  0  0  0  0
   35.0610   40.8850   23.3500 C   0  0  0  0  0  0  0  0  0  0  0  0
   36.0750   40.0880   22.5540 C   0  0  0  0  0  0  0  0  0  0  0  0
   35.4740   38.9770   26.7890 C   0  0  0  0  0  0  0  0  0  0  0  0
   35.5250   39.4840   21.2810 C   0  0  0  0  0  0  0  0  0  0  0  0
   37.1590   34.9080   32.1260 C   0  0  0  0  0  0  0  0  0  0  0  0
  2  4  1  0
  3  5  1  0
  3 10  1  0
  4 14  1  0
  5 17  1  0
  6 13  1  0
  6  8  1  0
  7 19  1  0
  7  9  1  0
  7 12  1  0
  8 19  1  0
  9 12  1  0
 11  6  1  0
 12  1  1  0
 14 11  1  0
 15  3  1  0
 16 15  1  0
 17  2  1  0
 18 16  1  0
M  END
$$$$

     RDKit          3D

 23 25  0  0  0  0  0  0  0  0999 V2000
   34.1910   35.7050   32.1440 C   0  0  0  0  0  0  0  0  0  0  0  0
   38.3030   41.0020   23.4830 C   0  0  0  0  0  0  0  0  0  0  0  0
   33.6330   35.6980   33.4860 C   0  0  0  0  0  0  0  0  0  0  0  0
   36.1450   36.1690   30.5960 C   0  0  0  0  0  0  0  0  0  0  0  0
   37.0480   40.2540   23.7900 C   0  0  0  0  0  0  0  0  0  0  0  0
   34.3120   35.7250   34.3470 C   0  0  0  0  0  0  0  0  0  0  0  0
   36.8890   38.9980   23.0910 C   0  0  0  0  0  0  0  0  0  0  0  0
   35.6940   35.3600   34.1840 C   0  0  0  0  0  0  0  0  0  0  0  0
   36.2520   35.6250   32.9840 C   0  0  0  0  0  0  0  0  0  0  0  0
   34.5930   39.1300   28.0980 C   0  0  0  0  0  0  0  0  0  0  0  0
   32.6920   35.8760   34.5270 N   0  0  0  0  0  0  0  0  0  0  0  0
   35.6390   38.4160   27.5710 C   0  0  0  0  0  0  0  0  0  0  0  0
   37.5690   36.1790   30.6350 N   0  0  0  0  0  0  0  0  0  0  0  0
   36.3120   37.5490   28.4010 C   0  0  0  0  0  0  0  0  0  0  0  0
   35.7730   37.2330   29.6280 C   0  0  0  0  0  0  0  0  0  0  0  0
   35.9810   40.6730   24.7320 C   0  0  0  0  0  0  0  0  0  0  0  0
   37.1930   38.0290   24.0890 C   0  0  0  0  0  0  0  0  0  0  0  0
   35.2990   39.7770   25.5800 C   0  0  0  0  0  0  0  0  0  0  0  0
   34.9440   38.1380   30.1040 C   0  0  0  0  0  0  0  0  0  0  0  0
   34.2960   39.0160   29.3900 C   0  0  0  0  0  0  0  0  0  0  0  0
   35.4930   35.7200   31.8400 C   0  0  0  0  0  0  0  0  0  0  0  0
   36.3640   37.6820   25.2670 C   0  0  0  0  0  0  0  0  0  0  0  0
   36.0100   38.6310   26.1720 C   0  0  0  0  0  0  0  0  0  0  0  0
  1  3  1  0
  3  6  2  0
  3 11  1  0
  4 13  1  0
  4 21  1  0
  5  2  1  0
  5 16  1  0
  7  5  1  0
  7 17  1  0
  8  6  1  0
  9  8  2  0
 10 20  1  0
 12 10  2  0
 12 14  1  0
 14 15  2  0
 15 19  1  0
 15  4  1  0
 16 18  1  0
 17 22  1  0
 18 23  1  0
 20 19  2  0
 21  1  2  0
 21  9  1  0
 22 23  1  0
 23 12  1  0
M  END
$$$$

     RDKit          3D

 22 22  0  0  0  0  0  0  0  0999 V2000
   38.0340   40.0320   35.7940 C   0  0  0  0  0  0  0  0  0  0  0  0
   37.2900   40.2200   23.5800 C   0  0  0  0  0  0  0  0  0  0  0  0
   38.0650   40.9250   33.5920 N   0  0  0  0  0  0  0  0  0  0  0  0
   35.1620   39.8860   26.2390 C   0  0  0  0  0  0  0  0  0  0  0  0
   36.0350   37.5280   29.1350 C   0  0  0  0  0  0  0  0  0  0  0  0
   35.5190   36.7000   30.2460 C   0  0  0  0  0  0  0  0  0  0  0  0
   38.4310   40.2560   21.3090 C   0  0  0  0  0  0  0  0  0  0  0  0
   35.8960   38.9580   26.8670 N   0  0  0  0  0  0  0  0  0  0  0  0
   36.1060   37.2460   31.5570 C   0  0  0  0  0  0  0  0  0  0  0  0
   35.3400   39.7360   24.8310 N   0  0  0  0  0  0  0  0  0  0  0  0
   37.6450   40.7790   32.2030 C   0  0  0  0  0  0  0  0  0  0  0  0
   38.3910   39.6850   22.7270 C   0  0  0  0  0  0  0  0  0  0  0  0
   34.2150   40.5440   26.7350 O   0  0  0  0  0  0  0  0  0  0  0  0
   36.7370   38.5010   29.8150 C   0  0  0  0  0  0  0  0  0  0  0  0
   37.1980   39.0900   33.7100 C   0  0  0  0  0  0  0  0  0  0  0  0
   36.5580   38.6230   31.2710 N   0  0  0  0  0  0  0  0  0  0  0  0
   37.0930   39.4510   32.4120 C   0  0  0  0  0  0  0  0  0  0  0  0
   37.7360   40.0430   34.3860 N   0  0  0  0  0  0  0  0  0  0  0  0
   36.7630   41.7200   23.6310 C   0  0  0  0  0  0  0  0  0  0  0  0
   36.9270   39.5050   24.6930 C   0  0  0  0  0  0  0  0  0  0  0  0
   37.0270   38.8810   27.5430 C   0  0  0  0  0  0  0  0  0  0  0  0
   36.7370   38.7580   28.9390 C   0  0  0  0  0  0  0  0  0  0  0  0
  2 19  1  0
  2 20  1  0
  3 18  1  0
  4 13  2  0
  4  8  1  0
  6  9  1  0
  7 12  1  0
  8 21  1  0
 10  4  1  0
 11 17  1  0
 11  3  2  0
 12  2  1  0
 14  5  1  0
 14 16  1  0
 15 18  1  0
 16  9  1  0
 16 17  1  0
 17 15  2  0
 18  1  1  0
 20 10  1  0
 21 22  1  0
 22 14  1  0
M  END
$$$$

     RDKit          3D

  1  0  0  0  0  0  0  0  0  0999 V2000
  -29.6450  -23.2490  138.6310 O   0  0  0  0  0  0  0  0  0  0  0  0
M  END
$$$$

     RDKit          3D

 14 14  0  0  0  0  0  0  0  0999 V2000
   36.6760   42.1990   28.7050 C   0  0  0  0  0  0  0  0  0  0  0  0
   35.8890   38.8260   29.6440 C   0  0  0  0  0  0  0  0  0  0  0  0
   37.7320   43.2650   28.8380 C   0  0  0  0  0  0  0  0  0  0  0  0
   36.7430   40.8460   28.9690 C   0  0  0  0  0  0  0  0  0  0  0  0
   37.5220   39.9470   28.0440 C   0  0  0  0  0  0  0  0  0  0  0  0
   38.3060   37.2170   31.6480 O   0  0  0  0  0  0  0  0  0  0  0  0
   37.5900   37.0360   30.6380 C   0  0  0  0  0  0  0  0  0  0  0  0
   38.5100   43.6690   27.5640 C   0  0  0  0  0  0  0  0  0  0  0  0
   38.8400   42.5010   26.8750 O   0  0  0  0  0  0  0  0  0  0  0  0
   38.0770   38.6930   28.6960 C   0  0  0  0  0  0  0  0  0  0  0  0
   35.8630   40.1050   29.7860 C   0  0  0  0  0  0  0  0  0  0  0  0
   37.1920   38.1260   29.7970 C   0  0  0  0  0  0  0  0  0  0  0  0
   37.4540   35.8980   30.4920 N   0  0  0  0  0  0  0  0  0  0  0  0
   37.6540   44.6360   26.7160 C   0  0  0  0  0  0  0  0  0  0  0  0
  1  3  1  0
  1  4  1  0
  2 11  1  0
  2 12  1  0
  4 11  2  0
  5 10  1  0
  5  4  1  0
  7  6  2  0
  8 14  1  0
  8  3  1  0
  9  8  1  0
 10 12  1  0
 12  7  1  0
 13  7  1  0
M  END
$$$$

     RDKit          3D

 12 13  0  0  0  0  0  0  0  0999 V2000
   36.3470   37.0690   32.0390 C   0  0  0  0  0  0  0  0  0  0  0  0
   37.2980   37.2260   30.7870 C   0  0  0  0  0  0  0  0  0  0  0  0
   35.8870   36.6720   27.2570 C   0  0  0  0  0  0  0  0  0  0  0  0
   36.4020   37.2060   29.5530 C   0  0  0  0  0  0  0  0  0  0  0  0
   36.0540   38.8400   27.9180 C   0  0  0  0  0  0  0  0  0  0  0  0
   35.9880   39.7990   28.6850 O   0  0  0  0  0  0  0  0  0  0  0  0
   34.4690   39.4310   26.2780 N   0  0  0  0  0  0  0  0  0  0  0  0
   35.2180   36.4140   30.0300 N   0  0  0  0  0  0  0  0  0  0  0  0
   35.1090   36.3400   31.5140 C   0  0  0  0  0  0  0  0  0  0  0  0
   36.6620   37.5400   28.2670 C   0  0  0  0  0  0  0  0  0  0  0  0
   35.8050   38.9320   26.4620 C   0  0  0  0  0  0  0  0  0  0  0  0
   35.8320   37.4980   26.0430 C   0  0  0  0  0  0  0  0  0  0  0  0
  2  1  1  0
  4  8  1  0
  4  2  1  0
  5 10  1  0
  5  6  2  0
  8  9  1  0
  9  1  1  0
 10  3  1  0
 10  4  1  0
 11  7  1  0
 11  5  1  0
 12 11  1  0
 12  3  1  0
M  END
$$$$

     RDKit          3D

 18 17  0  0  0  0  0  0  0  0999 V2000
   37.5690   36.8330   30.7440 C   0  0  0  0  0  0  0  0  0  0  0  0
   34.9350   39.4900   26.2220 C   0  0  0  0  0  0  0  0  0  0  0  0
   37.5550   36.6090   35.0250 N   0  0  0  0  0  0  0  0  0  0  0  0
   34.7160   40.0910   24.8120 C   0  0  0  0  0  0  0  0  0  0  0  0
   36.6290   36.5090   31.8690 C   0  0  0  0  0  0  0  0  0  0  0  0
   36.5620   38.7800   23.9430 N   0  0  0  0  0  0  0  0  0  0  0  0
   37.4500   35.7530   32.8680 C   0  0  0  0  0  0  0  0  0  0  0  0
   34.4290   41.3140   24.4690 O   0  0  0  0  0  0  0  0  0  0  0  0
   35.4680   38.3240   27.0860 C   0  0  0  0  0  0  0  0  0  0  0  0
   34.5190   40.5140   27.0580 O   0  0  0  0  0  0  0  0  0  0  0  0
   36.2400   38.5250   29.6300 C   0  0  0  0  0  0  0  0  0  0  0  0
   37.6100   38.1620   30.2000 C   0  0  0  0  0  0  0  0  0  0  0  0
   34.0850   41.3510   23.0200 C   0  0  0  0  0  0  0  0  0  0  0  0
   36.1730   38.7300   28.2390 N   0  0  0  0  0  0  0  0  0  0  0  0
   38.1930   36.5320   33.7330 C   0  0  0  0  0  0  0  0  0  0  0  0
   35.6370   39.7660   23.4980 C   0  0  0  0  0  0  0  0  0  0  0  0
   33.8960   42.2460   22.1350 O   0  0  0  0  0  0  0  0  0  0  0  0
   37.7540   34.8300   33.4350 O   0  0  0  0  0  0  0  0  0  0  0  0
  1  5  1  0
  2 10  1  0
  2  9  1  0
  4 16  1  0
  4  2  1  0
  5  7  1  0
  7 18  2  0
  7 15  1  0
  8  4  1  0
  9 14  1  0
 11 12  1  0
 12  1  1  0
 13  8  1  0
 14 11  1  0
 15  3  1  0
 16  6  1  0
 17 13  2  0
M  END
$$$$

     RDKit          3D

 19 19  0  0  0  0  0  0  0  0999 V2000
   36.3590   36.9060   29.5110 C   0  0  0  0  0  0  0  0  0  0  0  0
   36.7100   37.8630   28.4240 C   0  0  0  0  0  0  0  0  0  0  0  0
   36.5180   34.7770   30.6850 C   0  0  0  0  0  0  0  0  0  0  0  0
   36.1430   40.2150   22.4710 C   0  0  0  0  0  0  0  0  0  0  0  0
   35.4140   43.3090   26.1860 O   0  0  0  0  0  0  0  0  0  0  0  0
   36.9840   40.4650   25.6520 C   0  0  0  0  0  0  0  0  0  0  0  0
   34.8530   33.9340   32.2880 C   0  0  0  0  0  0  0  0  0  0  0  0
   36.9580   41.1830   23.2800 C   0  0  0  0  0  0  0  0  0  0  0  0
   36.9930   34.8380   33.1700 C   0  0  0  0  0  0  0  0  0  0  0  0
   35.8650   39.8380   26.4240 N   0  0  0  0  0  0  0  0  0  0  0  0
   36.3320   42.8630   27.1650 C   0  0  0  0  0  0  0  0  0  0  0  0
   36.2470   41.6770   28.1370 C   0  0  0  0  0  0  0  0  0  0  0  0
   36.0190   39.1710   28.7920 C   0  0  0  0  0  0  0  0  0  0  0  0
   37.4860   39.9090   23.0830 C   0  0  0  0  0  0  0  0  0  0  0  0
   36.3720   41.4110   24.6560 C   0  0  0  0  0  0  0  0  0  0  0  0
   37.5970   42.2270   22.8230 C   0  0  0  0  0  0  0  0  0  0  0  0
   36.1650   34.2810   32.0710 C   0  0  0  0  0  0  0  0  0  0  0  0
   35.9850   40.2000   27.6870 C   0  0  0  0  0  0  0  0  0  0  0  0
   37.1600   35.8710   30.1300 C   0  0  0  0  0  0  0  0  0  0  0  0
  1 19  1  0
  2 13  1  0
  2  1  1  0
  3 17  1  0
  4 14  1  0
  4  8  1  0
  5 11  1  0
  6 10  1  0
  8 15  1  0
 10 18  1  0
 11 12  1  0
 14  8  1  0
 15  6  1  0
 16  8  1  0
 17  7  2  0
 17  9  1  0
 18 12  2  3
 18 13  1  0
 19  3  1  0
M  END
$$$$

     RDKit          3D

 14 14  0  0  0  0  0  0  0  0999 V2000
   36.8100   36.3570   33.6980 C   0  0  0  0  0  0  0  0  0  0  0  0
   37.2880   38.9050   27.0330 C   0  0  0  0  0  0  0  0  0  0  0  0
   36.6820   38.4550   30.3910 C   0  0  0  0  0  0  0  0  0  0  0  0
   36.7970   37.0800   35.0250 C   0  0  0  0  0  0  0  0  0  0  0  0
   35.4940   35.9410   33.3760 C   0  0  0  0  0  0  0  0  0  0  0  0
   34.7130   35.1010   34.2030 N   0  0  0  0  0  0  0  0  0  0  0  0
   33.7220   34.3370   33.8690 C   0  0  0  0  0  0  0  0  0  0  0  0
   35.9830   39.5080   30.3990 O   0  0  0  0  0  0  0  0  0  0  0  0
   37.5360   38.0230   29.3530 C   0  0  0  0  0  0  0  0  0  0  0  0
   37.4110   37.3530   32.6310 C   0  0  0  0  0  0  0  0  0  0  0  0
   35.5750   35.2730   32.0110 C   0  0  0  0  0  0  0  0  0  0  0  0
   37.5260   38.3110   28.0950 N   0  0  0  0  0  0  0  0  0  0  0  0
   36.5300   37.3690   31.4000 C   0  0  0  0  0  0  0  0  0  0  0  0
   35.6410   36.3730   30.9890 C   0  0  0  0  0  0  0  0  0  0  0  0
  1  4  1  0
  2 12  3  0
  3  8  2  0
  5  1  1  0
  5  6  1  0
  7  6  2  0
  9  3  1  0
 10  1  1  0
 11  5  1  0
 12  9  1  0
 13  3  1  0
 13 10  1  0
 14 13  1  0
 14 11  1  0
M  END
$$$$

     RDKit          3D

 12 13  0  0  0  0  0  0  0  0999 V2000
   35.8350   37.7520   29.7810 C   0  0  0  0  0  0  0  0  0  0  0  0
   37.5430   40.6020   28.5420 N   0  0  0  0  0  0  0  0  0  0  0  0
   35.8930   37.6720   27.3200 C   0  0  0  0  0  0  0  0  0  0  0  0
   36.2430   38.1160   24.0160 C   0  0  0  0  0  0  0  0  0  0  0  0
   36.0430   38.2770   25.3390 C   0  0  0  0  0  0  0  0  0  0  0  0
   35.7080   36.6740   31.2170 S   0  0  0  0  0  0  0  0  0  0  0  0
   36.7470   39.2650   26.1150 N   0  0  0  0  0  0  0  0  0  0  0  0
   36.5800   38.8200   27.4010 C   0  0  0  0  0  0  0  0  0  0  0  0
   36.2940   39.0080   29.6730 N   0  0  0  0  0  0  0  0  0  0  0  0
   35.7430   37.1470   26.0970 O   0  0  0  0  0  0  0  0  0  0  0  0
   35.4450   37.1790   28.5300 C   0  0  0  0  0  0  0  0  0  0  0  0
   36.7510   39.4900   28.5630 C   0  0  0  0  0  0  0  0  0  0  0  0
  1  6  2  0
  2 12  1  0
  3  8  2  0
  3 11  1  0
  4  5  1  0
  5 10  1  0
  5  7  2  0
  7  8  1  0
  8 12  1  0
  9  1  1  0
 10  3  1  0
 11  1  1  0
 12  9  2  0
M  END
$$$$

     RDKit          3D

 11 12  0  0  0  0  0  0  0  0999 V2000
   35.5830   38.8410   25.5720 C   0  0  0  0  0  0  0  0  0  0  0  0
   35.5270   39.2490   22.8290 N   0  0  0  0  0  0  0  0  0  0  0  0
   34.5340   40.8580   21.7780 C   0  0  0  0  0  0  0  0  0  0  0  0
   33.6290   41.5060   19.9100 O   0  0  0  0  0  0  0  0  0  0  0  0
   35.5470   39.9590   24.8820 C   0  0  0  0  0  0  0  0  0  0  0  0
   35.9880   40.3840   23.4740 C   0  0  0  0  0  0  0  0  0  0  0  0
   33.3990   41.8030   21.2920 C   0  0  0  0  0  0  0  0  0  0  0  0
   35.8250   41.1790   21.2790 O   0  0  0  0  0  0  0  0  0  0  0  0
   36.6810   41.2400   22.4810 C   0  0  0  0  0  0  0  0  0  0  0  0
   34.6600   40.1660   23.0330 C   0  0  0  0  0  0  0  0  0  0  0  0
   34.9740   41.1180   25.3490 O   0  0  0  0  0  0  0  0  0  0  0  0
  2  6  1  0
  3  7  1  0
  3 10  1  0
  4  7  1  0
  5 11  1  0
  5  1  2  0
  6  5  1  0
  8  3  1  0
  8  9  1  0
  9  6  1  0
 10  2  1  0
 10  6  1  0
M  END
$$$$

     RDKit          3D

 18 18  0  0  0  0  0  0  0  0999 V2000
   35.8900   42.3210   24.4350 C   0  0  0  0  0  0  0  0  0  0  0  0
   36.7110   36.3470   34.6760 C   0  0  0  0  0  0  0  0  0  0  0  0
   36.3930   36.9430   28.3120 C   0  0  0  0  0  0  0  0  0  0  0  0
   34.9140   39.7580   28.2600 O   0  0  0  0  0  0  0  0  0  0  0  0
   36.0070   36.2770   33.4450 N   0  0  0  0  0  0  0  0  0  0  0  0
   35.9770   39.3050   28.0110 C   0  0  0  0  0  0  0  0  0  0  0  0
   36.1580   39.8750   25.4860 C   0  0  0  0  0  0  0  0  0  0  0  0
   35.6440   38.1770   25.0030 S   0  0  0  0  0  0  0  0  0  0  0  0
   36.8780   39.7170   26.8860 C   0  0  0  0  0  0  0  0  0  0  0  0
   35.7940   38.1880   23.4650 N   0  0  0  0  0  0  0  0  0  0  0  0
   37.0820   36.4500   32.3680 C   0  0  0  0  0  0  0  0  0  0  0  0
   36.9370   35.8330   29.5820 S   0  0  0  0  0  0  0  0  0  0  0  0
   36.3720   38.0770   30.3420 C   0  0  0  0  0  0  0  0  0  0  0  0
   33.8370   40.9280   24.4730 C   0  0  0  0  0  0  0  0  0  0  0  0
   35.3610   40.9270   24.7030 C   0  0  0  0  0  0  0  0  0  0  0  0
   34.6310   36.4570   33.2140 C   0  0  0  0  0  0  0  0  0  0  0  0
   36.8060   36.9480   30.9550 C   0  0  0  0  0  0  0  0  0  0  0  0
   36.5090   38.2720   28.8790 N   0  0  0  0  0  0  0  0  0  0  0  0
  1 15  1  0
  3 18  1  0
  3 12  1  0
  5  2  1  0
  6  4  2  0
  6 18  1  0
  7  9  1  0
  8  7  1  0
  9  6  1  0
 10  8  1  0
 11  5  1  0
 12 17  1  0
 13 17  1  0
 14 15  1  0
 15  7  1  0
 16  5  1  0
 17 11  1  0
 18 13  1  0
M  END
$$$$

     RDKit          3D

 14 14  0  0  0  0  0  0  0  0999 V2000
   35.6660   38.8700   26.9920 C   0  0  0  0  0  0  0  0  0  0  0  0
   37.1250   38.4600   24.4920 O   0  0  0  0  0  0  0  0  0  0  0  0
   33.9560   36.7750   29.5300 N   0  0  0  0  0  0  0  0  0  0  0  0
   34.3670   39.5730   22.8090 C   0  0  0  0  0  0  0  0  0  0  0  0
   34.9350   36.9250   28.6190 N   0  0  0  0  0  0  0  0  0  0  0  0
   34.7280   38.0820   27.8210 C   0  0  0  0  0  0  0  0  0  0  0  0
   35.9910   35.9260   28.9380 C   0  0  0  0  0  0  0  0  0  0  0  0
   36.6440   40.4560   22.7490 C   0  0  0  0  0  0  0  0  0  0  0  0
   33.1400   37.5910   29.3950 C   0  0  0  0  0  0  0  0  0  0  0  0
   36.2050   41.8230   22.7160 N   0  0  0  0  0  0  0  0  0  0  0  0
   33.5000   38.3650   28.3730 C   0  0  0  0  0  0  0  0  0  0  0  0
   35.9130   38.9280   24.5380 C   0  0  0  0  0  0  0  0  0  0  0  0
   35.5610   40.0620   23.6420 C   0  0  0  0  0  0  0  0  0  0  0  0
   35.1090   38.9160   25.6260 N   0  0  0  0  0  0  0  0  0  0  0  0
  1  6  1  0
  2 12  2  0
  5  7  1  0
  5  3  1  0
  6 11  2  0
  6  5  1  0
  8 13  1  0
  9  3  2  0
 10  8  1  0
 11  9  1  0
 12 14  1  0
 13  4  1  0
 13 12  1  0
 14  1  1  0
M  END
$$$$

     RDKit          3D

 10 10  0  0  0  0  0  0  0  0999 V2000
   37.5210   37.4910   26.2590 O   0  0  0  0  0  0  0  0  0  0  0  0
   34.2790   38.2200   24.4770 C   0  0  0  0  0  0  0  0  0  0  0  0
   36.6020   38.5800   24.2020 C   0  0  0  0  0  0  0  0  0  0  0  0
   35.2130   37.5680   25.6080 C   0  0  0  0  0  0  0  0  0  0  0  0
   37.8760   39.0790   23.8130 O   0  0  0  0  0  0  0  0  0  0  0  0
   36.5830   37.7770   25.4680 C   0  0  0  0  0  0  0  0  0  0  0  0
   34.6810   36.9180   26.6850 O   0  0  0  0  0  0  0  0  0  0  0  0
   35.1000   40.4200   23.2240 O   0  0  0  0  0  0  0  0  0  0  0  0
   35.3070   39.4260   24.2380 C   0  0  0  0  0  0  0  0  0  0  0  0
   33.5790   37.3540   24.0660 O   0  0  0  0  0  0  0  0  0  0  0  0
  2  4  1  0
  3  5  1  0
  3  9  1  0
  3  6  1  0
  4  7  1  0
  6  4  1  0
  6  1  2  0
  9  8  1  0
  9  2  1  0
 10  2  2  0
M  END
$$$$

     RDKit          3D

 16 17  0  0  0  0  0  0  0  0999 V2000
   38.2010   41.7340   28.8770 O   0  0  0  0  0  0  0  0  0  0  0  0
   38.6990   41.1600   27.7580 C   0  0  0  0  0  0  0  0  0  0  0  0
   36.6840   40.0480   22.3700 C   0  0  0  0  0  0  0  0  0  0  0  0
   37.7930   39.2720   24.4900 C   0  0  0  0  0  0  0  0  0  0  0  0
   38.1150   39.4170   25.8430 C   0  0  0  0  0  0  0  0  0  0  0  0
   37.7740   41.3640   31.2210 C   0  0  0  0  0  0  0  0  0  0  0  0
   37.0190   41.5190   25.8440 C   0  0  0  0  0  0  0  0  0  0  0  0
   37.5580   43.3890   26.1290 S   0  0  0  0  0  0  0  0  0  0  0  0
   36.5410   41.4180   33.3390 C   0  0  0  0  0  0  0  0  0  0  0  0
   37.1120   40.2680   23.7830 C   0  0  0  0  0  0  0  0  0  0  0  0
   37.9600   40.5090   28.9750 C   0  0  0  0  0  0  0  0  0  0  0  0
   37.8030   40.0370   30.4800 C   0  0  0  0  0  0  0  0  0  0  0  0
   36.6330   41.3700   24.4760 C   0  0  0  0  0  0  0  0  0  0  0  0
   38.1210   39.1350   31.5060 O   0  0  0  0  0  0  0  0  0  0  0  0
   36.5530   41.7260   31.9920 C   0  0  0  0  0  0  0  0  0  0  0  0
   37.6530   40.4890   26.5600 C   0  0  0  0  0  0  0  0  0  0  0  0
  1 11  1  0
  2 16  1  0
  2  1  1  0
  2 11  1  0
  3 10  1  0
  4  5  1  0
  5 16  2  0
  6 15  1  0
  7  8  1  0
  7 16  1  0
 10 13  1  0
 10  4  2  0
 11 12  1  0
 12  6  1  0
 12 14  1  0
 13  7  2  0
 15  9  1  0
M  END
$$$$

     RDKit          3D

 20 20  0  0  0  0  0  0  0  0999 V2000
   36.2450   39.9350   26.7740 C   0  0  0  0  0  0  0  0  0  0  0  0
   35.9460   37.1640   26.1140 C   0  0  0  0  0  0  0  0  0  0  0  0
   37.2320   40.0830   30.4420 C   0  0  0  0  0  0  0  0  0  0  0  0
   36.5100   39.6430   29.2590 C   0  0  0  0  0  0  0  0  0  0  0  0
   35.2950   36.9870   24.9530 O   0  0  0  0  0  0  0  0  0  0  0  0
   35.8670   39.4940   24.3740 C   0  0  0  0  0  0  0  0  0  0  0  0
   37.3280   42.7180   30.4450 C   0  0  0  0  0  0  0  0  0  0  0  0
   37.7480   38.0380   33.3600 N   0  0  0  0  0  0  0  0  0  0  0  0
   37.4780   41.6400   30.3220 C   0  0  0  0  0  0  0  0  0  0  0  0
   36.3240   40.6240   28.1120 C   0  0  0  0  0  0  0  0  0  0  0  0
   34.3490   38.6740   27.2010 O   0  0  0  0  0  0  0  0  0  0  0  0
   36.3000   38.6480   23.5490 O   0  0  0  0  0  0  0  0  0  0  0  0
   36.8490   37.5970   27.1630 C   0  0  0  0  0  0  0  0  0  0  0  0
   35.9830   39.4580   25.6600 C   0  0  0  0  0  0  0  0  0  0  0  0
   35.5310   40.8620   23.8360 C   0  0  0  0  0  0  0  0  0  0  0  0
   37.4110   38.2720   32.0460 C   0  0  0  0  0  0  0  0  0  0  0  0
   37.5580   39.5040   31.5280 N   0  0  0  0  0  0  0  0  0  0  0  0
   35.7240   38.5290   26.7480 C   0  0  0  0  0  0  0  0  0  0  0  0
   37.1370   37.3630   31.2630 O   0  0  0  0  0  0  0  0  0  0  0  0
   37.8580   43.9490   31.1230 C   0  0  0  0  0  0  0  0  0  0  0  0
  1 10  1  0
  2 13  1  0
  3 17  1  0
  4  3  1  0
  5  2  1  0
  7 20  1  0
  9  3  2  0
  9  7  2  0
 10  4  1  0
 12  6  2  0
 14  6  1  0
 14 18  1  0
 14  1  1  0
 15  6  1  0
 16  8  1  0
 17 16  1  0
 18  1  1  0
 18 13  1  0
 18 11  1  0
 19 16  2  0
M  END
$$$$

     RDKit          3D

 14 14  0  0  0  0  0  0  0  0999 V2000
   35.2070   37.6520   30.2500 O   0  0  0  0  0  0  0  0  0  0  0  0
   38.1540   42.6480   29.6140 N   0  0  0  0  0  0  0  0  0  0  0  0
   37.4320   39.4720   28.8570 O   0  0  0  0  0  0  0  0  0  0  0  0
   38.0150   40.9410   25.5250 O   0  0  0  0  0  0  0  0  0  0  0  0
   33.7340   36.3060   28.8370 O   0  0  0  0  0  0  0  0  0  0  0  0
   38.1630   40.6500   28.1060 C   0  0  0  0  0  0  0  0  0  0  0  0
   36.7780   38.6620   25.4390 O   0  0  0  0  0  0  0  0  0  0  0  0
   36.8850   39.3110   26.5460 C   0  0  0  0  0  0  0  0  0  0  0  0
   33.4480   38.7550   29.0470 O   0  0  0  0  0  0  0  0  0  0  0  0
   37.4510   40.6770   26.7850 C   0  0  0  0  0  0  0  0  0  0  0  0
   36.7160   38.6070   27.8590 C   0  0  0  0  0  0  0  0  0  0  0  0
   38.1330   41.8920   28.8400 C   0  0  0  0  0  0  0  0  0  0  0  0
   34.3370   37.7070   28.6440 P   0  0  0  0  0  0  0  0  0  0  0  0
   35.3800   37.8290   27.5920 O   0  0  0  0  0  0  0  0  0  0  0  0
  6 12  1  0
  6  3  1  0
  8  7  1  0
  8 10  1  0
  8 11  1  0
 10  4  1  0
 10  6  1  0
 11 14  1  0
 11  3  1  0
 12  2  3  0
 13  5  2  0
 13  9  1  0
 13  1  1  0
 14 13  1  0
M  END
$$$$
