
     RDKit          3D

 24 26  0  0  0  0  0  0  0  0999 V2000
   33.5870   34.2700   32.8500 N   0  0  0  0  0  0  0  0  0  0  0  0
   35.9230   37.2900   30.8030 C   0  0  0  0  0  0  0  0  0  0  0  0
   37.0540   36.5520   31.0920 C   0  0  0  0  0  0  0  0  0  0  0  0
   38.2880   37.0590   30.7510 C   0  0  0  0  0  0  0  0  0  0  0  0
   35.7770   33.2230   32.6970 S   0  0  0  0  0  0  0  0  0  0  0  0
   39.4530   39.9880   29.2350 C   0  0  0  0  0  0  0  0  0  0  0  0
   33.6270   36.6560   32.3760 C   0  0  0  0  0  0  0  0  0  0  0  0
   37.2360   39.2300   30.3570 C   0  0  0  0  0  0  0  0  0  0  0  0
   37.0000   35.2560   31.7570 C   0  0  0  0  0  0  0  0  0  0  0  0
   40.8060   37.8760   28.3200 C   0  0  0  0  0  0  0  0  0  0  0  0
   40.6150   39.3300   28.3890 C   0  0  0  0  0  0  0  0  0  0  0  0
   40.2930   39.9510   27.0520 C   0  0  0  0  0  0  0  0  0  0  0  0
   35.6920   34.7950   32.2750 C   0  0  0  0  0  0  0  0  0  0  0  0
   33.6630   32.1100   33.7880 N   0  0  0  0  0  0  0  0  0  0  0  0
   34.1600   33.1730   33.2150 C   0  0  0  0  0  0  0  0  0  0  0  0
   39.0320   42.2150   27.2180 C   0  0  0  0  0  0  0  0  0  0  0  0
   39.6510   39.1610   30.5760 C   0  0  0  0  0  0  0  0  0  0  0  0
   40.2080   36.8650   29.1350 O   0  0  0  0  0  0  0  0  0  0  0  0
   39.1520   40.8340   27.3190 C   0  0  0  0  0  0  0  0  0  0  0  0
   41.6180   37.4880   27.4580 O   0  0  0  0  0  0  0  0  0  0  0  0
   38.3510   38.4380   30.5630 C   0  0  0  0  0  0  0  0  0  0  0  0
   38.3850   40.2420   28.2540 O   0  0  0  0  0  0  0  0  0  0  0  0
   36.0120   38.6490   30.5190 C   0  0  0  0  0  0  0  0  0  0  0  0
   34.3370   35.3100   32.4660 C   0  0  0  0  0  0  0  0  0  0  0  0
  1 15  1  0
  2  3  1  0
  3  9  1  0
  4  3  2  0
  5 15  1  0
  6 17  1  0
  7 24  1  0
  8 23  1  0
  8 21  2  0
  9 13  2  3
 10 18  1  0
 11 10  1  0
 11  6  1  0
 12 19  1  0
 12 11  1  0
 13 24  1  0
 13  5  1  0
 15 14  2  0
 19 16  1  0
 19 22  1  0
 20 10  2  0
 21 17  1  0
 21  4  1  0
 22  6  1  0
 23  2  2  0
 24  1  2  0
M  END
$$$$

     RDKit          3D

  8  7  0  0  0  0  0  0  0  0999 V2000
   39.8500   38.9640   28.1820 C   0  0  0  0  0  0  0  0  0  0  0  0
   40.9610   38.6350   27.2210 C   0  0  0  0  0  0  0  0  0  0  0  0
   39.8960   38.1900   29.2790 O   0  0  0  0  0  0  0  0  0  0  0  0
   38.7970   41.4020   27.2250 C   0  0  0  0  0  0  0  0  0  0  0  0
   39.6470   40.3400   28.1960 O   0  0  0  0  0  0  0  0  0  0  0  0
   40.1930   41.3780   27.6280 C   0  0  0  0  0  0  0  0  0  0  0  0
   41.4990   41.2630   26.9090 O   0  0  0  0  0  0  0  0  0  0  0  0
   40.3230   39.0720   26.0330 O   0  0  0  0  0  0  0  0  0  0  0  0
  1  5  1  0
  1  3  2  0
  2  1  1  0
  6  4  1  0
  6  5  1  0
  7  6  1  0
  8  2  1  0
M  END
$$$$

     RDKit          3D

 13 14  0  0  0  0  0  0  0  0999 V2000
   35.4340   38.4530   30.5450 C   0  0  0  0  0  0  0  0  0  0  0  0
   34.9880   37.1740   31.2050 C   0  0  0  0  0  0  0  0  0  0  0  0
   38.0870   38.4510   30.2750 C   0  0  0  0  0  0  0  0  0  0  0  0
   36.8360   38.9150   30.9490 C   0  0  0  0  0  0  0  0  0  0  0  0
   39.5810   38.6010   28.5610 N   0  0  0  0  0  0  0  0  0  0  0  0
   38.6300   36.0110   31.0240 C   0  0  0  0  0  0  0  0  0  0  0  0
   40.8620   36.6740   28.9730 N   0  0  0  0  0  0  0  0  0  0  0  0
   38.8030   39.3750   29.4570 C   0  0  0  0  0  0  0  0  0  0  0  0
   36.1470   36.5010   31.9250 C   0  0  0  0  0  0  0  0  0  0  0  0
   39.8020   37.4290   29.2350 C   0  0  0  0  0  0  0  0  0  0  0  0
   38.0780   40.4530   29.1260 N   0  0  0  0  0  0  0  0  0  0  0  0
   37.1560   35.8910   31.1580 C   0  0  0  0  0  0  0  0  0  0  0  0
   38.7710   37.2650   30.1940 C   0  0  0  0  0  0  0  0  0  0  0  0
  1  4  1  0
  1  2  1  0
  2  9  1  0
  3  4  1  0
  5 10  1  0
  5  8  1  0
  6 12  1  0
  7 10  2  0
  8 11  1  0
  8  3  1  0
 10 13  1  0
 12  9  1  0
 13  3  2  0
 13  6  1  0
M  END
$$$$

     RDKit          3D

 13 14  0  0  0  0  0  0  0  0999 V2000
   41.2530   36.7980   28.3920 O   0  0  0  0  0  0  0  0  0  0  0  0
   40.9670   37.9580   28.2870 C   0  0  0  0  0  0  0  0  0  0  0  0
   37.3890   39.4000   29.1290 C   0  0  0  0  0  0  0  0  0  0  0  0
   41.9070   38.9870   28.3100 N   0  0  0  0  0  0  0  0  0  0  0  0
   38.2960   40.6750   30.9710 N   0  0  0  0  0  0  0  0  0  0  0  0
   41.2970   40.0660   28.8110 C   0  0  0  0  0  0  0  0  0  0  0  0
   39.7540   38.4420   29.0180 N   0  0  0  0  0  0  0  0  0  0  0  0
   37.2330   39.7490   30.5960 C   0  0  0  0  0  0  0  0  0  0  0  0
   39.2850   41.0080   30.0490 C   0  0  0  0  0  0  0  0  0  0  0  0
   38.3110   38.1880   28.8870 C   0  0  0  0  0  0  0  0  0  0  0  0
   40.0000   39.8140   29.4520 C   0  0  0  0  0  0  0  0  0  0  0  0
   36.1460   39.0430   28.5580 O   0  0  0  0  0  0  0  0  0  0  0  0
   41.7280   41.2310   29.0180 O   0  0  0  0  0  0  0  0  0  0  0  0
  2  4  1  0
  2  1  2  0
  2  7  1  0
  3 12  1  0
  3  8  1  0
  4  6  1  0
  6 13  2  0
  6 11  1  0
  7 11  1  0
  8  5  1  0
  9  5  1  0
 10  7  1  0
 10  3  1  0
 11  9  1  0
M  END
$$$$

     RDKit          3D

 12 12  0  0  0  0  0  0  0  0999 V2000
   39.9840   37.2530   29.8950 N   0  0  0  0  0  0  0  0  0  0  0  0
   36.3390   37.7220   30.2140 C   0  0  0  0  0  0  0  0  0  0  0  0
   36.9050   39.1320   28.1680 O   0  0  0  0  0  0  0  0  0  0  0  0
   32.6550   36.5490   30.9380 C   0  0  0  0  0  0  0  0  0  0  0  0
   36.9620   36.9590   31.3170 C   0  0  0  0  0  0  0  0  0  0  0  0
   39.2290   39.7830   29.0780 O   0  0  0  0  0  0  0  0  0  0  0  0
   34.0520   37.0790   31.2380 C   0  0  0  0  0  0  0  0  0  0  0  0
   37.0970   38.5450   29.3490 C   0  0  0  0  0  0  0  0  0  0  0  0
   34.9860   37.2790   30.0780 C   0  0  0  0  0  0  0  0  0  0  0  0
   39.1770   38.0740   30.7150 C   0  0  0  0  0  0  0  0  0  0  0  0
   38.3420   39.0820   29.9500 C   0  0  0  0  0  0  0  0  0  0  0  0
   38.3940   36.8620   31.2600 C   0  0  0  0  0  0  0  0  0  0  0  0
  2  9  1  0
  2  5  1  0
  4  7  1  0
  8  3  1  0
  8 11  1  0
  8  2  1  0
  9  7  2  3
 10  1  1  0
 10 12  1  0
 11  6  1  0
 11 10  1  0
 12  5  1  0
M  END
$$$$

     RDKit          3D

 11 12  0  0  0  0  0  0  0  0999 V2000
   36.9870   39.2440   27.8050 N   0  0  0  0  0  0  0  0  0  0  0  0
   41.4630   39.1530   27.4260 C   0  0  0  0  0  0  0  0  0  0  0  0
   40.5740   38.4560   29.8790 O   0  0  0  0  0  0  0  0  0  0  0  0
   40.5340   38.9460   28.5690 C   0  0  0  0  0  0  0  0  0  0  0  0
   39.1580   39.4200   28.1850 C   0  0  0  0  0  0  0  0  0  0  0  0
   38.0670   38.6370   28.2750 C   0  0  0  0  0  0  0  0  0  0  0  0
   42.5410   40.7330   28.7730 O   0  0  0  0  0  0  0  0  0  0  0  0
   41.5100   40.0200   28.6390 C   0  0  0  0  0  0  0  0  0  0  0  0
   36.7350   41.3330   26.3330 C   0  0  0  0  0  0  0  0  0  0  0  0
   38.7600   40.5770   27.6310 N   0  0  0  0  0  0  0  0  0  0  0  0
   37.4390   40.3810   27.2710 C   0  0  0  0  0  0  0  0  0  0  0  0
  1  6  1  0
  2  4  1  0
  2  8  1  0
  4  8  1  0
  4  3  1  0
  5  6  2  0
  5  4  1  0
  8  7  1  0
  9 11  1  0
 10  5  1  0
 11 10  1  0
 11  1  2  0
M  END
$$$$

     RDKit          3D

 12 14  0  0  0  0  0  0  0  0999 V2000
   37.6920   37.7920   30.3150 N   0  0  0  0  0  0  0  0  0  0  0  0
   39.7370   39.3810   30.0030 S   0  0  0  0  0  0  0  0  0  0  0  0
   36.7030   37.5530   31.4260 C   0  0  0  0  0  0  0  0  0  0  0  0
   38.0140   39.2260   30.2440 C   0  0  0  0  0  0  0  0  0  0  0  0
   40.2320   37.7950   29.9710 C   0  0  0  0  0  0  0  0  0  0  0  0
   40.0840   40.5500   29.4420 O   0  0  0  0  0  0  0  0  0  0  0  0
   39.7570   36.4250   29.6400 C   0  0  0  0  0  0  0  0  0  0  0  0
   39.1390   35.8470   30.9000 C   0  0  0  0  0  0  0  0  0  0  0  0
   41.0790   36.9810   29.5240 O   0  0  0  0  0  0  0  0  0  0  0  0
   37.2890   39.8960   29.2200 O   0  0  0  0  0  0  0  0  0  0  0  0
   38.1080   36.9290   31.3770 C   0  0  0  0  0  0  0  0  0  0  0  0
   40.4450   39.8980   31.1600 O   0  0  0  0  0  0  0  0  0  0  0  0
  1 11  1  0
  1  3  1  0
  2  4  1  0
  2 12  2  0
  4 10  1  0
  4  1  1  0
  5  9  1  0
  5  2  1  0
  6  2  2  0
  7  5  1  0
  7  8  1  0
  9  7  1  0
 11  8  1  0
 11  3  1  0
M  END
$$$$

     RDKit          3D

 13 13  0  0  0  0  0  0  0  0999 V2000
   42.2660   42.0560   30.9030 O   0  0  0  0  0  0  0  0  0  0  0  0
   38.9070   40.8420   29.8760 C   0  0  0  0  0  0  0  0  0  0  0  0
   37.0280   39.9520   28.0390 C   0  0  0  0  0  0  0  0  0  0  0  0
   41.0870   37.4120   26.9500 O   0  0  0  0  0  0  0  0  0  0  0  0
   38.9340   38.6220   28.6340 C   0  0  0  0  0  0  0  0  0  0  0  0
   40.1990   42.6850   31.7090 O   0  0  0  0  0  0  0  0  0  0  0  0
   40.9000   39.3260   29.8180 C   0  0  0  0  0  0  0  0  0  0  0  0
   38.4310   40.0310   28.6430 C   0  0  0  0  0  0  0  0  0  0  0  0
   40.4210   40.7630   29.9840 C   0  0  0  0  0  0  0  0  0  0  0  0
   40.8150   37.2800   28.3160 C   0  0  0  0  0  0  0  0  0  0  0  0
   36.2700   39.3880   28.7010 O   0  0  0  0  0  0  0  0  0  0  0  0
   40.9480   41.6160   31.1340 C   0  0  0  0  0  0  0  0  0  0  0  0
   40.3910   38.6490   28.6440 N   0  0  0  0  0  0  0  0  0  0  0  0
  1 12  1  0
  2  9  1  0
  3 11  1  0
  4 10  1  0
  5  8  1  0
  5 13  1  0
  7  9  1  0
  8  3  1  0
  8  2  1  0
  9 12  1  0
 10 13  1  0
 12  6  1  0
 13  7  1  0
M  END
$$$$

     RDKit          3D

 12 12  0  0  0  0  0  0  0  0999 V2000
   39.1680   36.4930   33.9470 O   0  0  0  0  0  0  0  0  0  0  0  0
   37.3470   36.1560   30.8680 C   0  0  0  0  0  0  0  0  0  0  0  0
   39.2470   37.4740   30.5150 C   0  0  0  0  0  0  0  0  0  0  0  0
   37.8330   37.3490   30.2590 O   0  0  0  0  0  0  0  0  0  0  0  0
   36.0940   36.3670   31.6400 C   0  0  0  0  0  0  0  0  0  0  0  0
   39.7290   39.0710   32.4580 O   0  0  0  0  0  0  0  0  0  0  0  0
   38.3690   35.7120   31.8400 C   0  0  0  0  0  0  0  0  0  0  0  0
   39.2560   37.8720   31.9020 C   0  0  0  0  0  0  0  0  0  0  0  0
   38.5220   36.9110   32.7590 C   0  0  0  0  0  0  0  0  0  0  0  0
   39.8100   38.6130   29.5650 C   0  0  0  0  0  0  0  0  0  0  0  0
   35.9650   36.9260   32.7420 O   0  0  0  0  0  0  0  0  0  0  0  0
   35.1220   35.7830   31.1220 O   0  0  0  0  0  0  0  0  0  0  0  0
  2  5  1  0
  2  7  1  0
  3 10  1  0
  3  8  1  0
  4  3  1  0
  4  2  1  0
  5 11  1  0
  7  9  1  0
  8  6  1  0
  8  9  1  0
  9  1  1  0
 12  5  2  0
M  END
$$$$

     RDKit          3D

 19 19  0  0  0  0  0  0  0  0999 V2000
   37.7570   32.1740   34.2360 N   0  0  0  0  0  0  0  0  0  0  0  0
   36.5600   32.9340   34.5000 C   0  0  0  0  0  0  0  0  0  0  0  0
   40.4960   38.0850   29.9830 C   0  0  0  0  0  0  0  0  0  0  0  0
   41.6480   41.4800   29.6570 C   0  0  0  0  0  0  0  0  0  0  0  0
   39.0580   39.3850   31.2040 C   0  0  0  0  0  0  0  0  0  0  0  0
   41.1550   39.1790   29.7390 C   0  0  0  0  0  0  0  0  0  0  0  0
   38.4920   34.7640   32.1960 C   0  0  0  0  0  0  0  0  0  0  0  0
   33.8030   34.7400   34.4770 C   0  0  0  0  0  0  0  0  0  0  0  0
   41.4350   37.6000   28.7210 S   0  0  0  0  0  0  0  0  0  0  0  0
   39.1380   35.8260   31.4370 N   0  0  0  0  0  0  0  0  0  0  0  0
   39.3790   38.1420   30.7590 C   0  0  0  0  0  0  0  0  0  0  0  0
   41.0720   40.2910   30.4610 C   0  0  0  0  0  0  0  0  0  0  0  0
   37.3590   37.2660   31.5730 O   0  0  0  0  0  0  0  0  0  0  0  0
   39.9330   40.3380   31.1160 N   0  0  0  0  0  0  0  0  0  0  0  0
   38.5430   37.0650   31.2180 C   0  0  0  0  0  0  0  0  0  0  0  0
   35.5710   33.1150   33.4200 C   0  0  0  0  0  0  0  0  0  0  0  0
   37.1700   34.8750   32.7240 C   0  0  0  0  0  0  0  0  0  0  0  0
   35.8780   35.3770   32.6500 N   0  0  0  0  0  0  0  0  0  0  0  0
   34.9520   34.5430   33.4670 C   0  0  0  0  0  0  0  0  0  0  0  0
  1  2  1  0
  3 11  1  0
  6  3  1  0
  6 12  1  0
  7 17  1  0
  9  3  2  0
 10  7  2  3
 11  5  1  0
 11 15  1  0
 12  4  1  0
 12 14  1  0
 14  5  2  0
 15 10  1  0
 15 13  2  0
 16 19  1  0
 16  2  1  0
 18 17  1  0
 18 19  1  0
 19  8  1  0
M  END
$$$$

     RDKit          3D

 11 11  0  0  0  0  0  0  0  0999 V2000
   38.7620   40.7190   26.7770 O   0  0  0  0  0  0  0  0  0  0  0  0
   41.8300   41.3460   30.0180 O   0  0  0  0  0  0  0  0  0  0  0  0
   41.3330   37.6300   25.2640 O   0  0  0  0  0  0  0  0  0  0  0  0
   40.3210   38.8940   28.5750 C   0  0  0  0  0  0  0  0  0  0  0  0
   40.7900   39.9600   25.7950 C   0  0  0  0  0  0  0  0  0  0  0  0
   40.6890   38.4570   26.1070 C   0  0  0  0  0  0  0  0  0  0  0  0
   41.0420   37.9990   27.5380 C   0  0  0  0  0  0  0  0  0  0  0  0
   40.4910   40.3960   28.2670 C   0  0  0  0  0  0  0  0  0  0  0  0
   40.7760   41.4470   29.3060 C   0  0  0  0  0  0  0  0  0  0  0  0
   40.1530   40.8510   26.8680 C   0  0  0  0  0  0  0  0  0  0  0  0
   39.8820   42.2900   29.4990 O   0  0  0  0  0  0  0  0  0  0  0  0
  5  6  1  0
  5 10  1  0
  6  3  1  0
  6  7  1  0
  7  4  1  0
  8  4  1  0
  8  9  1  0
  9 11  2  0
  9  2  1  0
 10  1  1  0
 10  8  1  0
M  END
$$$$

     RDKit          3D

 28 29  0  0  0  0  0  0  0  0999 V2000
   37.2510   30.1180   35.3110 C   0  0  0  0  0  0  0  0  0  0  0  0
   38.5150   39.8670   29.6020 C   0  0  0  0  0  0  0  0  0  0  0  0
   39.7890   41.2670   28.1330 C   0  0  0  0  0  0  0  0  0  0  0  0
   31.7180   33.9260   32.9030 O   0  0  0  0  0  0  0  0  0  0  0  0
   33.9440   33.3230   33.0230 C   0  0  0  0  0  0  0  0  0  0  0  0
   39.2370   40.3500   27.3250 C   0  0  0  0  0  0  0  0  0  0  0  0
   36.5520   37.8760   30.7220 C   0  0  0  0  0  0  0  0  0  0  0  0
   34.7120   35.8120   31.7980 N   0  0  0  0  0  0  0  0  0  0  0  0
   41.0400   41.8070   28.1770 C   0  0  0  0  0  0  0  0  0  0  0  0
   38.6540   43.6530   26.6730 C   0  0  0  0  0  0  0  0  0  0  0  0
   39.1150   38.1260   27.9450 C   0  0  0  0  0  0  0  0  0  0  0  0
   35.7450   30.2540   35.0560 C   0  0  0  0  0  0  0  0  0  0  0  0
   38.1440   40.7110   26.4000 C   0  0  0  0  0  0  0  0  0  0  0  0
   36.7980   44.2170   25.2420 C   0  0  0  0  0  0  0  0  0  0  0  0
   37.1350   39.8030   29.0120 C   0  0  0  0  0  0  0  0  0  0  0  0
   37.3710   43.1070   26.1440 C   0  0  0  0  0  0  0  0  0  0  0  0
   35.0250   33.4250   32.0770 C   0  0  0  0  0  0  0  0  0  0  0  0
   39.3010   38.6980   29.3180 C   0  0  0  0  0  0  0  0  0  0  0  0
   35.2910   31.2040   33.8030 S   0  0  0  0  0  0  0  0  0  0  0  0
   35.3970   37.0600   31.4320 C   0  0  0  0  0  0  0  0  0  0  0  0
   36.3560   39.3250   30.2310 C   0  0  0  0  0  0  0  0  0  0  0  0
   35.8060   36.8720   30.0160 C   0  0  0  0  0  0  0  0  0  0  0  0
   32.9720   34.2150   32.7220 C   0  0  0  0  0  0  0  0  0  0  0  0
   34.1470   32.4220   34.3390 C   0  0  0  0  0  0  0  0  0  0  0  0
   37.4790   41.7310   25.4540 C   0  0  0  0  0  0  0  0  0  0  0  0
   35.2370   34.7140   31.4140 C   0  0  0  0  0  0  0  0  0  0  0  0
   39.8530   39.0270   26.9980 C   0  0  0  0  0  0  0  0  0  0  0  0
   33.3430   35.6180   32.2220 C   0  0  0  0  0  0  0  0  0  0  0  0
  3  9  2  0
  5 24  1  0
  6 13  1  0
  6  3  1  0
  7 21  1  0
  7 20  1  0
  8 28  1  0
 11 18  1  0
 12  1  1  0
 14 16  1  0
 15  2  1  0
 15 21  1  0
 16 10  1  0
 17  5  2  0
 18  2  1  0
 19 24  1  0
 19 12  1  0
 20 22  1  0
 20  8  1  0
 22  7  1  0
 23  4  1  0
 23  5  1  0
 25 16  1  0
 25 13  1  0
 26  8  1  0
 26 17  1  0
 27  6  1  0
 27 11  1  0
 28 23  2  0
M  END
$$$$

     RDKit          3D

 10 10  0  0  0  0  0  0  0  0999 V2000
   37.2750   35.6130   31.0640 C   0  0  0  0  0  0  0  0  0  0  0  0
   38.1500   36.6370   30.7980 C   0  0  0  0  0  0  0  0  0  0  0  0
   36.3170   38.1670   30.6740 N   0  0  0  0  0  0  0  0  0  0  0  0
   35.5250   37.1190   30.9340 C   0  0  0  0  0  0  0  0  0  0  0  0
   34.0520   37.4430   30.8800 C   0  0  0  0  0  0  0  0  0  0  0  0
   37.6130   37.9390   30.5840 C   0  0  0  0  0  0  0  0  0  0  0  0
   38.3760   38.8350   30.2270 O   0  0  0  0  0  0  0  0  0  0  0  0
   37.6950   34.4180   31.2730 N   0  0  0  0  0  0  0  0  0  0  0  0
   35.1240   34.7540   30.8060 F   0  0  0  0  0  0  0  0  0  0  0  0
   35.9290   35.8450   30.9800 C   0  0  0  0  0  0  0  0  0  0  0  0
  1  8  1  0
  2  1  2  0
  3  4  2  0
  4 10  1  0
  5  4  1  0
  6  3  1  0
  6  2  1  0
  7  6  2  0
 10  9  1  0
 10  1  1  0
M  END
$$$$

     RDKit          3D

 18 19  0  0  0  0  0  0  0  0999 V2000
   39.9630   38.3400   29.2230 C   0  0  0  0  0  0  0  0  0  0  0  0
   36.3920   36.8120   32.1130 C   0  0  0  0  0  0  0  0  0  0  0  0
   38.4000   35.5630   31.8590 C   0  0  0  0  0  0  0  0  0  0  0  0
   41.1910   37.5940   32.5850 C   0  0  0  0  0  0  0  0  0  0  0  0
   39.2960   39.6780   28.9650 C   0  0  0  0  0  0  0  0  0  0  0  0
   38.5770   38.0580   32.2870 C   0  0  0  0  0  0  0  0  0  0  0  0
   35.4450   34.6180   32.7480 C   0  0  0  0  0  0  0  0  0  0  0  0
   39.9930   37.9680   31.7100 C   0  0  0  0  0  0  0  0  0  0  0  0
   33.5870   36.5680   32.2070 Br  0  0  0  0  0  0  0  0  0  0  0  0
   37.7790   36.7700   31.9930 C   0  0  0  0  0  0  0  0  0  0  0  0
   35.4020   35.8970   32.2510 C   0  0  0  0  0  0  0  0  0  0  0  0
   37.9110   34.4200   32.4230 C   0  0  0  0  0  0  0  0  0  0  0  0
   36.5340   32.4690   33.1740 C   0  0  0  0  0  0  0  0  0  0  0  0
   39.4510   39.3230   32.0250 C   0  0  0  0  0  0  0  0  0  0  0  0
   38.5060   40.5360   29.2980 C   0  0  0  0  0  0  0  0  0  0  0  0
   39.9960   37.2700   30.3400 C   0  0  0  0  0  0  0  0  0  0  0  0
   36.4710   32.2960   34.5800 O   0  0  0  0  0  0  0  0  0  0  0  0
   36.6380   33.9610   32.7860 C   0  0  0  0  0  0  0  0  0  0  0  0
  1 16  1  0
  2 11  1  0
  3 10  1  0
  3 12  2  0
  5  1  1  0
  5 15  2  0
  6 10  1  0
  7 18  2  0
  8 14  1  0
  8  6  1  0
  8  4  1  0
 10  2  2  0
 11  9  1  0
 11  7  1  0
 12 18  1  0
 13 17  1  0
 14  6  1  0
 16  8  1  0
 18 13  1  0
M  END
$$$$

     RDKit          3D

 18 18  0  0  0  0  0  0  0  0999 V2000
   37.5160   40.6110   30.4460 O   0  0  0  0  0  0  0  0  0  0  0  0
   36.8980   38.5620   29.7020 C   0  0  0  0  0  0  0  0  0  0  0  0
   35.4930   38.3980   29.9970 C   0  0  0  0  0  0  0  0  0  0  0  0
   37.3650   39.9340   29.4570 C   0  0  0  0  0  0  0  0  0  0  0  0
   39.5920   44.7610   29.4210 O   0  0  0  0  0  0  0  0  0  0  0  0
   37.9940   42.9490   30.7630 O   0  0  0  0  0  0  0  0  0  0  0  0
   39.0070   35.4410   30.0360 C   0  0  0  0  0  0  0  0  0  0  0  0
   37.9130   37.6740   29.7250 N   0  0  0  0  0  0  0  0  0  0  0  0
   35.2720   36.0080   30.4520 C   0  0  0  0  0  0  0  0  0  0  0  0
   35.7300   41.7930   31.8580 O   0  0  0  0  0  0  0  0  0  0  0  0
   36.5230   35.6870   30.0890 C   0  0  0  0  0  0  0  0  0  0  0  0
   37.7700   36.3380   29.9600 C   0  0  0  0  0  0  0  0  0  0  0  0
   39.6540   43.3900   28.9760 C   0  0  0  0  0  0  0  0  0  0  0  0
   39.2230   42.4620   30.0940 C   0  0  0  0  0  0  0  0  0  0  0  0
   37.5350   40.2860   28.1730 N   0  0  0  0  0  0  0  0  0  0  0  0
   34.7770   37.3740   30.2860 C   0  0  0  0  0  0  0  0  0  0  0  0
   38.0780   41.3200   32.5890 O   0  0  0  0  0  0  0  0  0  0  0  0
   37.1740   41.8390   31.5960 P   0  0  0  0  0  0  0  0  0  0  0  0
  1 18  1  0
  2  8  2  0
  2  3  1  0
  3 16  1  0
  4 15  1  0
  4  2  1  0
  4  1  1  0
  6 18  1  0
  8 12  1  0
 11  9  1  0
 12  7  1  0
 12 11  2  0
 13  5  1  0
 13 14  1  0
 14  6  1  0
 16  9  2  0
 18 10  2  0
 18 17  1  0
M  END
$$$$

     RDKit          3D

 10  9  0  0  0  0  0  0  0  0999 V2000
   40.0510   40.2420   27.4410 C   0  0  0  0  0  0  0  0  0  0  0  0
   40.5620   40.8580   25.1800 F   0  0  0  0  0  0  0  0  0  0  0  0
   38.0690   39.8150   25.9580 O   0  0  0  0  0  0  0  0  0  0  0  0
   40.8260   39.5550   28.5090 C   0  0  0  0  0  0  0  0  0  0  0  0
   40.7440   38.4460   28.9490 O   0  0  0  0  0  0  0  0  0  0  0  0
   41.0370   40.8500   26.3970 C   0  0  0  0  0  0  0  0  0  0  0  0
   39.3050   39.3120   26.4210 C   0  0  0  0  0  0  0  0  0  0  0  0
   41.7790   40.0310   29.0770 O   0  0  0  0  0  0  0  0  0  0  0  0
   42.3110   40.5750   26.6440 F   0  0  0  0  0  0  0  0  0  0  0  0
   41.0970   42.1000   26.1400 F   0  0  0  0  0  0  0  0  0  0  0  0
  1  7  1  0
  1  4  1  0
  2  6  1  0
  3  7  1  0
  4  5  2  0
  4  8  1  0
  6  9  1  0
  6  1  1  0
 10  6  1  0
M  END
$$$$

     RDKit          3D

 10 10  0  0  0  0  0  0  0  0999 V2000
   40.7820   37.9220   28.0830 C   0  0  0  0  0  0  0  0  0  0  0  0
   37.0110   38.4560   28.0510 O   0  0  0  0  0  0  0  0  0  0  0  0
   39.7410   40.4870   28.0170 C   0  0  0  0  0  0  0  0  0  0  0  0
   42.0180   38.2130   27.7490 O   0  0  0  0  0  0  0  0  0  0  0  0
   40.2650   41.4120   29.0430 C   0  0  0  0  0  0  0  0  0  0  0  0
   38.0620   39.2020   30.2240 O   0  0  0  0  0  0  0  0  0  0  0  0
   38.5200   36.9380   29.5140 O   0  0  0  0  0  0  0  0  0  0  0  0
   41.1270   41.1130   28.1830 C   0  0  0  0  0  0  0  0  0  0  0  0
   38.2220   38.3360   29.0800 P   0  0  0  0  0  0  0  0  0  0  0  0
   39.6810   38.9730   28.1790 C   0  0  0  0  0  0  0  0  0  0  0  0
  1 10  2  3
  2  9  2  0
  3 10  1  0
  3  8  1  0
  3  5  1  0
  4  1  1  0
  8  5  1  0
  9  7  1  0
  9  6  1  0
 10  9  1  0
M  END
$$$$

     RDKit          3D

  8  8  0  0  0  0  0  0  0  0999 V2000
   38.7590   38.0910   29.1170 C   0  0  0  0  0  0  0  0  0  0  0  0
   38.6980   39.2400   29.2600 C   0  0  0  0  0  0  0  0  0  0  0  0
   40.0160   37.3220   29.5320 C   0  0  0  0  0  0  0  0  0  0  0  0
   41.8640   38.1970   28.2550 O   0  0  0  0  0  0  0  0  0  0  0  0
   41.0160   38.4680   29.3490 C   0  0  0  0  0  0  0  0  0  0  0  0
   38.5850   37.8440   27.7630 O   0  0  0  0  0  0  0  0  0  0  0  0
   40.2790   39.6660   29.1150 O   0  0  0  0  0  0  0  0  0  0  0  0
   40.7580   36.0820   29.3620 O   0  0  0  0  0  0  0  0  0  0  0  0
  1  6  1  0
  1  2  1  0
  1  3  1  0
  3  8  1  0
  5  4  1  0
  5  3  1  0
  7  2  1  0
  7  5  1  0
M  END
$$$$

     RDKit          3D

 13 14  0  0  0  0  0  0  0  0999 V2000
   39.4060   39.9610   31.4600 C   0  0  0  0  0  0  0  0  0  0  0  0
   37.2370   37.1720   30.7070 C   0  0  0  0  0  0  0  0  0  0  0  0
   40.3500   40.2470   30.2910 C   0  0  0  0  0  0  0  0  0  0  0  0
   39.9030   40.4380   32.7220 O   0  0  0  0  0  0  0  0  0  0  0  0
   41.5020   37.9830   29.2430 C   0  0  0  0  0  0  0  0  0  0  0  0
   39.0930   35.9120   30.1240 N   0  0  0  0  0  0  0  0  0  0  0  0
   37.7410   38.1090   31.7320 O   0  0  0  0  0  0  0  0  0  0  0  0
   41.4250   41.0830   30.1450 O   0  0  0  0  0  0  0  0  0  0  0  0
   38.3610   37.0910   29.7130 C   0  0  0  0  0  0  0  0  0  0  0  0
   39.1510   38.2820   29.9300 N   0  0  0  0  0  0  0  0  0  0  0  0
   41.5780   37.7710   27.9150 O   0  0  0  0  0  0  0  0  0  0  0  0
   39.0890   38.4850   31.3850 C   0  0  0  0  0  0  0  0  0  0  0  0
   40.4530   38.8530   29.6290 C   0  0  0  0  0  0  0  0  0  0  0  0
  1  4  1  0
  2  7  1  0
  3  8  1  0
  3  1  1  0
  5 13  1  0
  9 10  1  0
  9  6  1  0
  9  2  1  0
 10 12  1  0
 11  5  1  0
 12  1  1  0
 12  7  1  0
 13 10  1  0
 13  3  1  0
M  END
$$$$

     RDKit          3D

 10 10  0  0  0  0  0  0  0  0999 V2000
   36.0550   38.7490   29.9310 C   0  0  0  0  0  0  0  0  0  0  0  0
   38.7970   39.3740   32.0630 O   0  0  0  0  0  0  0  0  0  0  0  0
   38.5990   41.2920   29.9530 O   0  0  0  0  0  0  0  0  0  0  0  0
   36.7510   36.8980   31.4600 C   0  0  0  0  0  0  0  0  0  0  0  0
   34.8210   38.0570   29.8380 C   0  0  0  0  0  0  0  0  0  0  0  0
   35.4720   36.2940   31.2970 C   0  0  0  0  0  0  0  0  0  0  0  0
   37.0520   38.2530   30.8360 C   0  0  0  0  0  0  0  0  0  0  0  0
   38.7040   39.8930   29.7830 C   0  0  0  0  0  0  0  0  0  0  0  0
   38.2120   39.1110   31.0400 C   0  0  0  0  0  0  0  0  0  0  0  0
   34.4870   36.8850   30.4850 C   0  0  0  0  0  0  0  0  0  0  0  0
  1  7  1  0
  5  1  2  0
  5 10  1  0
  6  4  1  0
  7  9  1  0
  7  4  2  0
  8  3  1  0
  8  9  1  0
  9  2  2  0
 10  6  2  0
M  END
$$$$
