
     RDKit          3D

  6  6  0  0  0  0  0  0  0  0999 V2000
   35.5750   38.0740   23.5690 N   0  0  0  0  0  0  0  0  0  0  0  0
   35.2080   36.9540   24.0570 N   0  0  0  0  0  0  0  0  0  0  0  0
   36.4100   38.3220   22.2800 C   0  0  0  0  0  0  0  0  0  0  0  0
   34.5390   39.0680   21.8020 O   0  0  0  0  0  0  0  0  0  0  0  0
   34.9470   40.2900   22.7540 O   0  0  0  0  0  0  0  0  0  0  0  0
   35.0030   39.0550   22.6610 C   0  0  0  0  0  0  0  0  0  0  0  0
  1  2  1  0
  3  6  1  0
  3  1  1  0
  4  6  1  0
  6  5  1  0
  6  1  1  0
M  END
$$$$

     RDKit          3D

 10 10  0  0  0  0  0  0  0  0999 V2000
   37.3370   36.0770   31.2460 C   0  0  0  0  0  0  0  0  0  0  0  0
   35.8150   39.0440   25.5600 C   0  0  0  0  0  0  0  0  0  0  0  0
   35.3720   37.0500   30.1820 C   0  0  0  0  0  0  0  0  0  0  0  0
   36.1940   38.0260   26.3250 C   0  0  0  0  0  0  0  0  0  0  0  0
   36.5830   36.5770   30.0880 C   0  0  0  0  0  0  0  0  0  0  0  0
   36.9140   38.1910   27.4980 C   0  0  0  0  0  0  0  0  0  0  0  0
   37.6110   36.8540   28.6780 S   0  0  0  0  0  0  0  0  0  0  0  0
   36.1180   40.1660   26.0230 N   0  0  0  0  0  0  0  0  0  0  0  0
   37.2340   39.4370   27.9870 C   0  0  0  0  0  0  0  0  0  0  0  0
   36.8560   40.4130   27.1800 C   0  0  0  0  0  0  0  0  0  0  0  0
  2  8  2  0
  2  4  1  0
  4  6  2  0
  5  3  2  0
  5  1  1  0
  6  9  1  0
  6  7  1  0
  7  5  1  0
  8 10  1  0
 10  9  2  0
M  END
$$$$

     RDKit          3D

 22 22  0  0  0  0  0  0  0  0999 V2000
   35.2670   39.2470   25.6750 N   0  0  0  0  0  0  0  0  0  0  0  0
   35.3490   35.3190   31.5210 C   0  0  0  0  0  0  0  0  0  0  0  0
   34.2510   37.5580   21.9330 C   0  0  0  0  0  0  0  0  0  0  0  0
   35.6580   31.8990   34.7700 C   0  0  0  0  0  0  0  0  0  0  0  0
   35.7600   36.2830   28.6880 C   0  0  0  0  0  0  0  0  0  0  0  0
   34.6760   36.6990   29.6630 C   0  0  0  0  0  0  0  0  0  0  0  0
   33.6710   32.9290   34.2680 C   0  0  0  0  0  0  0  0  0  0  0  0
   35.8870   37.6250   30.6700 O   0  0  0  0  0  0  0  0  0  0  0  0
   34.2180   33.1590   32.8890 C   0  0  0  0  0  0  0  0  0  0  0  0
   35.7960   35.0110   32.7910 C   0  0  0  0  0  0  0  0  0  0  0  0
   35.5390   36.8080   26.2690 C   0  0  0  0  0  0  0  0  0  0  0  0
   33.1460   33.0680   31.7740 C   0  0  0  0  0  0  0  0  0  0  0  0
   36.2730   32.8460   33.8480 C   0  0  0  0  0  0  0  0  0  0  0  0
   34.2790   31.6440   34.5970 N   0  0  0  0  0  0  0  0  0  0  0  0
   35.4380   37.9730   25.4130 C   0  0  0  0  0  0  0  0  0  0  0  0
   35.8990   34.3630   30.6210 O   0  0  0  0  0  0  0  0  0  0  0  0
   35.4290   36.7160   27.4170 N   0  0  0  0  0  0  0  0  0  0  0  0
   35.6750   37.5120   23.9860 C   0  0  0  0  0  0  0  0  0  0  0  0
   34.3010   35.7220   30.7560 C   0  0  0  0  0  0  0  0  0  0  0  0
   33.3110   36.6290   28.7610 C   0  0  0  0  0  0  0  0  0  0  0  0
   35.5590   33.6030   33.0020 C   0  0  0  0  0  0  0  0  0  0  0  0
   34.3430   37.4980   23.3660 C   0  0  0  0  0  0  0  0  0  0  0  0
  2 16  1  0
  2 10  1  0
  3 22  1  0
  5  6  1  0
  6 20  1  0
  6  8  1  0
  6 19  1  0
  7 14  1  0
  9 12  1  0
  9 21  1  0
  9  7  1  0
 11 17  1  0
 13  4  2  0
 14  4  1  0
 15  1  1  0
 15 11  2  3
 17  5  1  0
 18 15  1  0
 19  2  1  0
 21 10  1  0
 21 13  1  0
 22 18  1  0
M  END
$$$$

     RDKit          3D

 11 11  0  0  0  0  0  0  0  0999 V2000
   35.7390   33.3270   27.7410 C   0  0  0  0  0  0  0  0  0  0  0  0
   36.5120   32.0980   28.0000 C   0  0  0  0  0  0  0  0  0  0  0  0
   36.6010   31.1920   26.8670 C   0  0  0  0  0  0  0  0  0  0  0  0
   36.0480   34.4210   28.5820 O   0  0  0  0  0  0  0  0  0  0  0  0
   36.7350   28.6770   26.3190 C   0  0  0  0  0  0  0  0  0  0  0  0
   35.0320   34.9630   25.9240 C   0  0  0  0  0  0  0  0  0  0  0  0
   37.0320   29.8290   27.2690 C   0  0  0  0  0  0  0  0  0  0  0  0
   33.7380   34.7920   26.4160 O   0  0  0  0  0  0  0  0  0  0  0  0
   35.8630   33.7620   26.2720 C   0  0  0  0  0  0  0  0  0  0  0  0
   36.4150   31.6070   25.5260 C   0  0  0  0  0  0  0  0  0  0  0  0
   35.3750   32.6250   25.6030 O   0  0  0  0  0  0  0  0  0  0  0  0
  1  2  1  0
  1  4  1  0
  3  7  1  0
  3  2  1  0
  5  7  1  0
  6  8  1  0
  9  6  1  0
  9  1  1  0
 10 11  1  0
 10  3  1  0
 11  9  1  0
M  END
$$$$

     RDKit          3D

 11 12  0  0  0  0  0  0  0  0999 V2000
   35.7370   38.5010   25.7270 C   0  0  0  0  0  0  0  0  0  0  0  0
   37.1210   39.4640   27.5990 C   0  0  0  0  0  0  0  0  0  0  0  0
   36.9080   39.6690   26.0440 C   0  0  0  0  0  0  0  0  0  0  0  0
   38.4010   36.6960   28.6730 C   0  0  0  0  0  0  0  0  0  0  0  0
   37.4500   41.0430   25.8440 O   0  0  0  0  0  0  0  0  0  0  0  0
   36.7450   38.1050   27.7890 N   0  0  0  0  0  0  0  0  0  0  0  0
   37.2920   40.3190   28.4280 O   0  0  0  0  0  0  0  0  0  0  0  0
   36.1600   36.5450   29.7710 C   0  0  0  0  0  0  0  0  0  0  0  0
   37.0880   37.4560   29.0070 C   0  0  0  0  0  0  0  0  0  0  0  0
   36.2080   37.8970   30.1780 C   0  0  0  0  0  0  0  0  0  0  0  0
   36.1740   37.3700   26.6430 C   0  0  0  0  0  0  0  0  0  0  0  0
  1  3  1  0
  1 11  1  0
  2  6  1  0
  2  7  2  0
  3  5  1  0
  3  2  1  0
  4  9  1  0
  6  9  1  0
  8 10  1  0
  9  8  1  0
  9 10  1  0
 11  6  1  0
M  END
$$$$

     RDKit          3D

 20 20  0  0  0  0  0  0  0  0999 V2000
   35.4540   37.5080   23.7670 C   0  0  0  0  0  0  0  0  0  0  0  0
   34.4000   36.9980   26.6860 O   0  0  0  0  0  0  0  0  0  0  0  0
   36.3180   40.5700   22.5590 C   0  0  0  0  0  0  0  0  0  0  0  0
   35.8300   36.9110   31.9350 O   0  0  0  0  0  0  0  0  0  0  0  0
   37.4140   40.6230   21.8240 O   0  0  0  0  0  0  0  0  0  0  0  0
   37.3280   37.2760   29.1170 C   0  0  0  0  0  0  0  0  0  0  0  0
   34.5510   36.9570   29.1460 C   0  0  0  0  0  0  0  0  0  0  0  0
   35.8270   38.8090   24.4670 C   0  0  0  0  0  0  0  0  0  0  0  0
   36.5450   38.4240   25.5940 C   0  0  0  0  0  0  0  0  0  0  0  0
   35.3940   37.6660   22.2530 C   0  0  0  0  0  0  0  0  0  0  0  0
   37.4950   38.3460   28.1550 C   0  0  0  0  0  0  0  0  0  0  0  0
   37.2480   38.2580   26.7690 C   0  0  0  0  0  0  0  0  0  0  0  0
   36.3930   36.3970   24.1040 C   0  0  0  0  0  0  0  0  0  0  0  0
   35.2890   37.0740   27.8230 C   0  0  0  0  0  0  0  0  0  0  0  0
   35.1910   40.8840   22.1640 O   0  0  0  0  0  0  0  0  0  0  0  0
   36.5450   39.7350   23.6160 N   0  0  0  0  0  0  0  0  0  0  0  0
   35.4680   35.7420   31.3180 C   0  0  0  0  0  0  0  0  0  0  0  0
   34.5810   35.0360   31.7940 O   0  0  0  0  0  0  0  0  0  0  0  0
   36.1250   35.3080   30.0200 C   0  0  0  0  0  0  0  0  0  0  0  0
   36.0030   36.5240   29.0580 C   0  0  0  0  0  0  0  0  0  0  0  0
  1 13  1  0
  1  8  1  0
  3 16  1  0
  5  3  2  0
  8  9  1  0
  9 12  3  0
 10  1  1  0
 11  6  1  0
 12 11  1  0
 14  2  1  0
 14 20  1  0
 14  7  1  0
 15  3  1  0
 16  8  1  0
 17 18  2  0
 17  4  1  0
 19 17  1  0
 20  6  1  0
 20  7  1  0
 20 19  1  0
M  END
$$$$

     RDKit          3D

 11 13  0  0  0  0  0  0  0  0999 V2000
   36.3560   38.4120   23.7580 C   0  0  0  0  0  0  0  0  0  0  0  0
   34.6540   39.9670   22.3350 C   0  0  0  0  0  0  0  0  0  0  0  0
   34.2630   37.9840   23.6130 N   0  0  0  0  0  0  0  0  0  0  0  0
   33.6250   39.0710   21.6700 C   0  0  0  0  0  0  0  0  0  0  0  0
   33.1120   38.3110   22.8060 C   0  0  0  0  0  0  0  0  0  0  0  0
   36.0800   36.7760   23.5520 C   0  0  0  0  0  0  0  0  0  0  0  0
   32.6340   37.8500   21.7730 C   0  0  0  0  0  0  0  0  0  0  0  0
   34.6570   36.7580   24.0870 C   0  0  0  0  0  0  0  0  0  0  0  0
   33.5500   36.1570   24.1920 O   0  0  0  0  0  0  0  0  0  0  0  0
   37.2930   39.0570   22.9230 O   0  0  0  0  0  0  0  0  0  0  0  0
   35.0610   39.0060   23.4420 N   0  0  0  0  0  0  0  0  0  0  0  0
  1 10  1  0
  3  8  1  0
  4  7  1  0
  4  2  1  0
  4  5  1  0
  5  7  1  0
  5  3  1  0
  6  1  1  0
  6  8  1  0
  8  9  2  0
 11  2  1  0
 11  3  1  0
 11  1  1  0
M  END
$$$$

     RDKit          3D

 12 12  0  0  0  0  0  0  0  0999 V2000
   35.8720   35.8750   24.6300 O   0  0  0  0  0  0  0  0  0  0  0  0
   34.3120   38.4690   22.4540 C   0  0  0  0  0  0  0  0  0  0  0  0
   34.4660   37.5380   23.6770 C   0  0  0  0  0  0  0  0  0  0  0  0
   33.2550   39.5280   22.8900 C   0  0  0  0  0  0  0  0  0  0  0  0
   32.7270   39.0300   24.2010 C   0  0  0  0  0  0  0  0  0  0  0  0
   35.6410   36.2040   22.2890 O   0  0  0  0  0  0  0  0  0  0  0  0
   33.3560   37.5820   26.1310 C   0  0  0  0  0  0  0  0  0  0  0  0
   33.6500   38.0230   24.7760 N   0  0  0  0  0  0  0  0  0  0  0  0
   35.4270   36.5920   23.6310 C   0  0  0  0  0  0  0  0  0  0  0  0
   31.9130   39.7040   24.7230 O   0  0  0  0  0  0  0  0  0  0  0  0
   32.2760   37.6090   26.6130 O   0  0  0  0  0  0  0  0  0  0  0  0
   34.4650   37.1780   27.0540 C   0  0  0  0  0  0  0  0  0  0  0  0
  2  4  1  0
  2  3  1  0
  3  9  1  0
  3  8  1  0
  4  5  1  0
  5 10  2  0
  5  8  1  0
  6  9  2  0
  7 11  2  0
  7 12  1  0
  8  7  1  0
  9  1  1  0
M  END
$$$$

     RDKit          3D

 12 12  0  0  0  0  0  0  0  0999 V2000
   35.6180   37.3900   29.3460 O   0  0  0  0  0  0  0  0  0  0  0  0
   36.2970   38.2170   29.2660 C   0  0  0  0  0  0  0  0  0  0  0  0
   37.2430   37.7670   26.6430 C   0  0  0  0  0  0  0  0  0  0  0  0
   38.1640   39.9510   27.4370 C   0  0  0  0  0  0  0  0  0  0  0  0
   38.4500   40.4340   26.0910 C   0  0  0  0  0  0  0  0  0  0  0  0
   39.8780   40.4590   23.6040 C   0  0  0  0  0  0  0  0  0  0  0  0
   39.6590   39.2210   24.3680 C   0  0  0  0  0  0  0  0  0  0  0  0
   37.0180   39.0850   27.4290 C   0  0  0  0  0  0  0  0  0  0  0  0
   37.7000   38.1390   25.2480 C   0  0  0  0  0  0  0  0  0  0  0  0
   38.3330   39.5130   24.9830 C   0  0  0  0  0  0  0  0  0  0  0  0
   36.9430   38.9000   28.7960 N   0  0  0  0  0  0  0  0  0  0  0  0
   39.0880   41.5760   25.9910 O   0  0  0  0  0  0  0  0  0  0  0  0
  2  1  2  0
  3  8  1  0
  5 12  1  0
  5  4  1  0
  6  7  1  0
  8  4  1  0
  8 11  1  0
  9  3  1  0
 10  7  1  0
 10  9  1  0
 10  5  1  0
 11  2  2  0
M  END
$$$$

     RDKit          3D

  8  7  0  0  0  0  0  0  0  0999 V2000
   35.9170   38.7800   23.5340 C   0  0  0  0  0  0  0  0  0  0  0  0
   35.4690   39.7910   21.3270 O   0  0  0  0  0  0  0  0  0  0  0  0
   36.3660   39.8990   22.5790 C   0  0  0  0  0  0  0  0  0  0  0  0
   36.2670   37.4160   22.8540 C   0  0  0  0  0  0  0  0  0  0  0  0
   36.0420   36.3200   23.5950 O   0  0  0  0  0  0  0  0  0  0  0  0
   37.9030   39.8920   22.5410 C   0  0  0  0  0  0  0  0  0  0  0  0
   36.4910   38.7800   24.7830 O   0  0  0  0  0  0  0  0  0  0  0  0
   36.7550   37.4130   21.6710 O   0  0  0  0  0  0  0  0  0  0  0  0
  1  7  1  0
  2  3  1  0
  3  6  1  0
  3  1  1  0
  4  1  1  0
  4  5  1  0
  8  4  2  0
M  END
$$$$

     RDKit          3D

 10 10  0  0  0  0  0  0  0  0999 V2000
   36.4030   38.5790   24.3470 N   0  0  0  0  0  0  0  0  0  0  0  0
   38.6610   39.4260   24.8810 C   0  0  0  0  0  0  0  0  0  0  0  0
   37.6600   38.7060   23.9940 C   0  0  0  0  0  0  0  0  0  0  0  0
   37.9310   38.2900   22.8620 O   0  0  0  0  0  0  0  0  0  0  0  0
   40.3380   41.2370   26.7110 C   0  0  0  0  0  0  0  0  0  0  0  0
   37.9260   41.1740   27.5300 O   0  0  0  0  0  0  0  0  0  0  0  0
   38.7450   41.5180   26.4940 C   0  0  0  0  0  0  0  0  0  0  0  0
   39.2860   40.5980   24.1100 C   0  0  0  0  0  0  0  0  0  0  0  0
   38.2990   40.8480   25.2200 C   0  0  0  0  0  0  0  0  0  0  0  0
   40.4720   40.2910   27.7640 O   0  0  0  0  0  0  0  0  0  0  0  0
  2  3  1  0
  2  9  1  0
  3  1  1  0
  4  3  2  0
  5 10  1  0
  7  5  1  0
  7  6  1  0
  8  2  1  0
  8  9  1  0
  9  7  1  0
M  END
$$$$

     RDKit          3D

 13 13  0  0  0  0  0  0  0  0999 V2000
   34.6670   37.4180   24.8590 C   0  0  0  0  0  0  0  0  0  0  0  0
   35.1630   35.1500   27.7060 C   0  0  0  0  0  0  0  0  0  0  0  0
   34.5330   39.1970   23.8690 C   0  0  0  0  0  0  0  0  0  0  0  0
   32.8670   37.6240   22.5500 C   0  0  0  0  0  0  0  0  0  0  0  0
   35.3330   40.1450   23.8270 O   0  0  0  0  0  0  0  0  0  0  0  0
   33.5500   36.4990   26.8030 C   0  0  0  0  0  0  0  0  0  0  0  0
   33.8970   38.7350   22.5750 C   0  0  0  0  0  0  0  0  0  0  0  0
   33.5990   40.0410   21.8480 C   0  0  0  0  0  0  0  0  0  0  0  0
   34.5690   36.6970   25.9180 C   0  0  0  0  0  0  0  0  0  0  0  0
   33.9020   38.6120   25.0390 C   0  0  0  0  0  0  0  0  0  0  0  0
   35.8440   34.4140   28.7700 C   0  0  0  0  0  0  0  0  0  0  0  0
   33.9390   35.6160   27.8050 N   0  0  0  0  0  0  0  0  0  0  0  0
   35.9170   35.5920   26.2110 S   0  0  0  0  0  0  0  0  0  0  0  0
  1 10  1  0
  2 12  2  0
  2 11  1  0
  3 10  1  0
  4  7  1  0
  5  3  2  0
  6 12  1  0
  7  3  1  0
  8  7  1  0
  9  1  1  0
  9 13  1  0
  9  6  1  0
 13  2  1  0
M  END
$$$$

     RDKit          3D

 16 16  0  0  0  0  0  0  0  0999 V2000
   38.2320   36.4860   33.2420 C   0  0  0  0  0  0  0  0  0  0  0  0
   37.5830   33.6650   30.6180 C   0  0  0  0  0  0  0  0  0  0  0  0
   36.1550   37.0460   32.2390 C   0  0  0  0  0  0  0  0  0  0  0  0
   36.1530   37.9970   34.2340 C   0  0  0  0  0  0  0  0  0  0  0  0
   36.7240   36.6810   33.5320 C   0  0  0  0  0  0  0  0  0  0  0  0
   36.7880   37.7490   23.2740 C   0  0  0  0  0  0  0  0  0  0  0  0
   38.3380   35.8370   32.0070 O   0  0  0  0  0  0  0  0  0  0  0  0
   36.8220   36.2160   31.2510 C   0  0  0  0  0  0  0  0  0  0  0  0
   36.9200   37.2980   25.6520 C   0  0  0  0  0  0  0  0  0  0  0  0
   37.1900   35.7490   27.5310 C   0  0  0  0  0  0  0  0  0  0  0  0
   36.7050   39.1920   23.9030 C   0  0  0  0  0  0  0  0  0  0  0  0
   37.2070   36.6300   26.6970 C   0  0  0  0  0  0  0  0  0  0  0  0
   37.1040   34.2420   29.3760 N   0  0  0  0  0  0  0  0  0  0  0  0
   36.8490   37.9220   24.5410 C   0  0  0  0  0  0  0  0  0  0  0  0
   37.9240   35.1400   28.4390 C   0  0  0  0  0  0  0  0  0  0  0  0
   37.8320   34.2820   31.9650 C   0  0  0  0  0  0  0  0  0  0  0  0
  1  5  1  0
  2 16  1  0
  3  5  1  0
  5  4  1  0
  6 11  1  0
  6 14  1  0
  7  1  1  0
  8  3  1  0
  9 12  3  0
 10 15  1  0
 11 14  1  0
 12 10  1  0
 13  2  1  0
 14  9  1  0
 15 13  1  0
 16  7  1  0
M  END
$$$$

     RDKit          3D

 16 16  0  0  0  0  0  0  0  0999 V2000
   36.3490   39.3600   27.0380 C   0  0  0  0  0  0  0  0  0  0  0  0
   37.3950   39.1490   25.9660 C   0  0  0  0  0  0  0  0  0  0  0  0
   37.5880   39.7540   29.3430 O   0  0  0  0  0  0  0  0  0  0  0  0
   34.8730   39.7550   24.8090 C   0  0  0  0  0  0  0  0  0  0  0  0
   36.8880   38.1280   30.5680 O   0  0  0  0  0  0  0  0  0  0  0  0
   36.0850   40.5710   24.3120 C   0  0  0  0  0  0  0  0  0  0  0  0
   36.6170   35.2170   30.6700 C   0  0  0  0  0  0  0  0  0  0  0  0
   36.6220   38.0850   27.9600 C   0  0  0  0  0  0  0  0  0  0  0  0
   37.8950   37.3450   31.2240 C   0  0  0  0  0  0  0  0  0  0  0  0
   34.9580   39.6420   26.3720 C   0  0  0  0  0  0  0  0  0  0  0  0
   36.1080   40.8420   22.8120 C   0  0  0  0  0  0  0  0  0  0  0  0
   38.8930   35.2110   31.4740 C   0  0  0  0  0  0  0  0  0  0  0  0
   37.0160   38.6060   29.2900 C   0  0  0  0  0  0  0  0  0  0  0  0
   35.4360   37.2560   27.6170 N   0  0  0  0  0  0  0  0  0  0  0  0
   37.4240   40.0020   24.7720 C   0  0  0  0  0  0  0  0  0  0  0  0
   37.6370   36.0190   31.3770 C   0  0  0  0  0  0  0  0  0  0  0  0
  1  8  1  0
  2  1  1  0
  4 10  1  0
  5  9  1  0
  6 11  1  0
  6 15  1  0
  6  4  1  0
  7 16  1  0
  8 14  1  0
  8 13  1  0
  9 16  1  0
 10  1  1  0
 13  3  2  0
 13  5  1  0
 15  2  1  0
 16 12  1  0
M  END
$$$$

     RDKit          3D

 28 29  0  0  0  0  0  0  0  0999 V2000
   33.7100   35.4880   28.5620 C   0  0  0  0  0  0  0  0  0  0  0  0
   35.5720   38.0650   21.0400 O   0  0  0  0  0  0  0  0  0  0  0  0
   34.4120   40.9040   22.2170 C   0  0  0  0  0  0  0  0  0  0  0  0
   36.0880   39.4790   23.5910 C   0  0  0  0  0  0  0  0  0  0  0  0
   38.2270   38.7980   28.3910 N   0  0  0  0  0  0  0  0  0  0  0  0
   35.9980   35.3760   29.5300 C   0  0  0  0  0  0  0  0  0  0  0  0
   35.8570   37.7080   22.3380 C   0  0  0  0  0  0  0  0  0  0  0  0
   33.9140   33.8260   31.3570 O   0  0  0  0  0  0  0  0  0  0  0  0
   36.1960   36.1440   28.2590 C   0  0  0  0  0  0  0  0  0  0  0  0
   36.5720   37.2930   28.2890 O   0  0  0  0  0  0  0  0  0  0  0  0
   36.6630   39.1370   25.9660 C   0  0  0  0  0  0  0  0  0  0  0  0
   37.3420   38.3080   28.1400 C   0  0  0  0  0  0  0  0  0  0  0  0
   34.5660   35.2460   29.6570 C   0  0  0  0  0  0  0  0  0  0  0  0
   33.9330   38.4140   23.6140 O   0  0  0  0  0  0  0  0  0  0  0  0
   34.3180   40.0920   21.0250 O   0  0  0  0  0  0  0  0  0  0  0  0
   36.9430   39.5080   27.3820 C   0  0  0  0  0  0  0  0  0  0  0  0
   35.5340   35.4830   27.0910 C   0  0  0  0  0  0  0  0  0  0  0  0
   33.9270   34.9990   30.9280 C   0  0  0  0  0  0  0  0  0  0  0  0
   37.9730   40.2260   27.5320 O   0  0  0  0  0  0  0  0  0  0  0  0
   35.2890   40.7900   25.3730 O   0  0  0  0  0  0  0  0  0  0  0  0
   36.2340   40.0150   24.9310 C   0  0  0  0  0  0  0  0  0  0  0  0
   35.0920   38.4880   23.3520 C   0  0  0  0  0  0  0  0  0  0  0  0
   34.1020   42.3720   21.8870 C   0  0  0  0  0  0  0  0  0  0  0  0
   37.5860   34.5420   29.5770 Cl  0  0  0  0  0  0  0  0  0  0  0  0
   34.0900   35.8460   27.2650 C   0  0  0  0  0  0  0  0  0  0  0  0
   33.2050   35.8970   31.3520 O   0  0  0  0  0  0  0  0  0  0  0  0
   36.0190   36.3700   22.6440 O   0  0  0  0  0  0  0  0  0  0  0  0
   35.7470   40.8410   22.9490 C   0  0  0  0  0  0  0  0  0  0  0  0
  1 13  2  0
  2  7  2  0
  3 23  1  0
  3 28  1  0
  4 28  1  0
  4 21  1  0
  6 24  1  0
  6 13  1  0
  7 27  1  0
  7 22  1  0
  9 10  1  0
  9  6  1  0
 12 10  1  0
 12  5  2  0
 13 18  1  0
 15  3  1  0
 16 11  1  0
 16 19  1  0
 16 12  1  0
 17 25  1  0
 17  9  1  0
 18 26  2  0
 18  8  1  0
 19  5  1  0
 21 20  1  0
 21 11  1  0
 22  4  1  0
 22 14  2  0
 25  1  1  0
M  END
$$$$

     RDKit          3D

 18 19  0  0  0  0  0  0  0  0999 V2000
   37.5090   35.4800   28.8060 C   0  0  0  0  0  0  0  0  0  0  0  0
   38.9360   39.2480   25.3410 O   0  0  0  0  0  0  0  0  0  0  0  0
   36.3550   37.4670   31.9110 N   0  0  0  0  0  0  0  0  0  0  0  0
   37.3570   38.0820   26.6110 C   0  0  0  0  0  0  0  0  0  0  0  0
   35.1390   37.0870   31.2830 C   0  0  0  0  0  0  0  0  0  0  0  0
   35.4770   34.5400   32.3540 O   0  0  0  0  0  0  0  0  0  0  0  0
   38.0560   39.5030   24.3690 C   0  0  0  0  0  0  0  0  0  0  0  0
   36.1500   35.9960   29.2890 C   0  0  0  0  0  0  0  0  0  0  0  0
   35.8610   33.4680   29.9640 C   0  0  0  0  0  0  0  0  0  0  0  0
   36.0440   37.3590   28.7190 C   0  0  0  0  0  0  0  0  0  0  0  0
   34.8910   35.5690   31.4430 C   0  0  0  0  0  0  0  0  0  0  0  0
   37.8880   40.9540   24.0060 C   0  0  0  0  0  0  0  0  0  0  0  0
   37.5060   39.1070   25.6770 C   0  0  0  0  0  0  0  0  0  0  0  0
   37.8160   38.4950   23.2770 C   0  0  0  0  0  0  0  0  0  0  0  0
   38.0060   36.8120   26.5360 C   0  0  0  0  0  0  0  0  0  0  0  0
   37.9680   35.7520   27.4450 C   0  0  0  0  0  0  0  0  0  0  0  0
   35.4410   34.8450   30.0570 C   0  0  0  0  0  0  0  0  0  0  0  0
   36.5130   38.1810   27.7930 C   0  0  0  0  0  0  0  0  0  0  0  0
  1  8  1  0
  2 13  1  0
  4 18  1  0
  5 11  1  0
  5  3  1  0
  7  2  1  0
  7 13  1  0
  8 17  1  0
 10  8  1  0
 11  6  1  0
 12  7  1  0
 13  4  1  0
 14  7  1  0
 15  4  2  0
 15 16  1  0
 16  1  2  0
 17  9  1  0
 17 11  1  0
 18 10  2  0
M  END
$$$$

     RDKit          3D

 20 20  0  0  0  0  0  0  0  0999 V2000
   35.3000   34.9720   30.4460 N   0  0  0  0  0  0  0  0  0  0  0  0
   38.0770   40.5420   24.8670 O   0  0  0  0  0  0  0  0  0  0  0  0
   32.2340   36.1420   30.4120 C   0  0  0  0  0  0  0  0  0  0  0  0
   37.1150   37.2520   23.5400 N   0  0  0  0  0  0  0  0  0  0  0  0
   34.3300   35.1180   29.3520 C   0  0  0  0  0  0  0  0  0  0  0  0
   36.2180   36.5740   24.3260 C   0  0  0  0  0  0  0  0  0  0  0  0
   36.1610   38.1430   28.3180 C   0  0  0  0  0  0  0  0  0  0  0  0
   37.6350   38.5770   23.4140 C   0  0  0  0  0  0  0  0  0  0  0  0
   35.7250   36.6490   25.7550 C   0  0  0  0  0  0  0  0  0  0  0  0
   36.7420   40.7070   27.9760 C   0  0  0  0  0  0  0  0  0  0  0  0
   37.5470   39.2230   24.8010 C   0  0  0  0  0  0  0  0  0  0  0  0
   37.5780   38.9130   20.9210 C   0  0  0  0  0  0  0  0  0  0  0  0
   34.3090   36.4180   28.5320 C   0  0  0  0  0  0  0  0  0  0  0  0
   37.0470   39.3920   22.2300 C   0  0  0  0  0  0  0  0  0  0  0  0
   36.2250   37.7380   26.7820 C   0  0  0  0  0  0  0  0  0  0  0  0
   37.0630   38.8830   26.1780 C   0  0  0  0  0  0  0  0  0  0  0  0
   33.0850   33.9370   31.0410 N   0  0  0  0  0  0  0  0  0  0  0  0
   37.5000   39.8410   27.1750 O   0  0  0  0  0  0  0  0  0  0  0  0
   32.9410   34.8830   29.9320 C   0  0  0  0  0  0  0  0  0  0  0  0
   35.2630   37.3740   29.0760 O   0  0  0  0  0  0  0  0  0  0  0  0
  4  6  1  0
  5 19  1  0
  5  1  1  0
  6  9  2  0
  7 20  1  0
  8 14  1  0
  8  4  1  0
  8 11  1  0
  9 15  1  0
 11  2  1  0
 11 16  2  0
 12 14  1  0
 13 20  1  0
 13  5  1  0
 15  7  1  0
 16 15  1  0
 16 18  1  0
 18 10  1  0
 19  3  1  0
 19 17  1  0
M  END
$$$$

     RDKit          3D

  4  3  0  0  0  0  0  0  0  0999 V2000
   37.4630   38.9860   23.2210 C   0  0  0  0  0  0  0  0  0  0  0  0
   38.5030   39.3700   20.9380 C   0  0  0  0  0  0  0  0  0  0  0  0
   37.3930   39.5740   21.7900 C   0  0  0  0  0  0  0  0  0  0  0  0
   36.3920   40.7350   21.8080 C   0  0  0  0  0  0  0  0  0  0  0  0
  2  3  1  0
  3  4  1  0
  3  1  1  0
M  END
$$$$

     RDKit          3D

 17 18  0  0  0  0  0  0  0  0999 V2000
   36.6100   33.0440   30.6990 N   0  0  0  0  0  0  0  0  0  0  0  0
   36.2940   41.0730   24.8140 C   0  0  0  0  0  0  0  0  0  0  0  0
   35.6750   37.8960   26.6250 N   0  0  0  0  0  0  0  0  0  0  0  0
   37.0360   34.8350   28.1570 C   0  0  0  0  0  0  0  0  0  0  0  0
   35.5960   40.0700   25.6350 C   0  0  0  0  0  0  0  0  0  0  0  0
   35.5810   37.1050   28.8260 N   0  0  0  0  0  0  0  0  0  0  0  0
   38.5660   40.0880   25.4820 C   0  0  0  0  0  0  0  0  0  0  0  0
   36.3970   37.0490   31.0230 N   0  0  0  0  0  0  0  0  0  0  0  0
   36.5030   39.1170   26.3800 C   0  0  0  0  0  0  0  0  0  0  0  0
   38.4150   41.9710   24.1010 N   0  0  0  0  0  0  0  0  0  0  0  0
   37.8270   38.8080   25.8530 C   0  0  0  0  0  0  0  0  0  0  0  0
   37.4030   34.2690   30.6130 C   0  0  0  0  0  0  0  0  0  0  0  0
   35.8970   36.8840   27.5460 C   0  0  0  0  0  0  0  0  0  0  0  0
   36.5050   35.6920   27.1640 C   0  0  0  0  0  0  0  0  0  0  0  0
   36.8040   35.1550   29.5010 C   0  0  0  0  0  0  0  0  0  0  0  0
   37.7240   41.0430   24.7010 C   0  0  0  0  0  0  0  0  0  0  0  0
   36.0730   36.3350   29.7760 C   0  0  0  0  0  0  0  0  0  0  0  0
  2  5  1  0
  3 13  1  0
  4 15  1  0
  5  9  1  0
  6 17  1  0
  7 11  1  0
  9  3  1  0
 10 16  2  0
 11  9  1  0
 12  1  1  0
 13  6  2  0
 14 13  1  0
 14  4  2  0
 15 17  1  0
 15 12  1  0
 16  2  1  0
 16  7  1  0
 17  8  1  0
M  END
$$$$

     RDKit          3D

 19 21  0  0  0  0  0  0  0  0999 V2000
   35.2040   33.9310   26.5440 N   0  0  0  0  0  0  0  0  0  0  0  0
   36.9030   41.5360   25.7450 F   0  0  0  0  0  0  0  0  0  0  0  0
   36.3830   36.1950   27.9570 C   0  0  0  0  0  0  0  0  0  0  0  0
   35.9690   33.8030   27.7040 C   0  0  0  0  0  0  0  0  0  0  0  0
   37.0650   32.2590   29.1350 N   0  0  0  0  0  0  0  0  0  0  0  0
   35.4290   36.5300   27.0040 C   0  0  0  0  0  0  0  0  0  0  0  0
   36.1780   32.4910   28.1880 C   0  0  0  0  0  0  0  0  0  0  0  0
   35.4800   40.0520   24.0300 F   0  0  0  0  0  0  0  0  0  0  0  0
   35.6620   39.6940   25.3270 C   0  0  0  0  0  0  0  0  0  0  0  0
   37.0000   39.7170   27.3520 C   0  0  0  0  0  0  0  0  0  0  0  0
   33.8310   38.2260   25.3250 F   0  0  0  0  0  0  0  0  0  0  0  0
   37.4800   34.6370   29.3760 C   0  0  0  0  0  0  0  0  0  0  0  0
   35.6160   37.8440   26.7910 C   0  0  0  0  0  0  0  0  0  0  0  0
   36.6000   34.8590   28.3160 N   0  0  0  0  0  0  0  0  0  0  0  0
   36.9970   37.4030   28.5070 C   0  0  0  0  0  0  0  0  0  0  0  0
   36.5270   40.3360   26.1910 C   0  0  0  0  0  0  0  0  0  0  0  0
   37.6830   33.3090   29.7290 C   0  0  0  0  0  0  0  0  0  0  0  0
   36.5850   38.4200   27.6110 C   0  0  0  0  0  0  0  0  0  0  0  0
   35.0070   38.5650   25.8250 C   0  0  0  0  0  0  0  0  0  0  0  0
  2 16  1  0
  3  6  1  0
  3 14  1  0
  3 15  1  0
  4  1  1  0
  4  7  1  0
  4 14  1  0
  5 17  1  0
  7  5  2  0
  8  9  1  0
  9 19  2  0
  9 16  1  0
 10 18  1  0
 11 19  1  0
 12 17  2  0
 13  6  1  0
 13 18  2  0
 14 12  1  0
 16 10  2  0
 18 15  1  0
 19 13  1  0
M  END
$$$$
