
     RDKit          3D

 21 23  0  0  0  0  0  0  0  0999 V2000
   33.0360   35.3140   31.5070 C   0  0  0  0  0  0  0  0  0  0  0  0
   35.2000   36.0260   32.1400 C   0  0  0  0  0  0  0  0  0  0  0  0
   34.2070   35.9620   31.1620 C   0  0  0  0  0  0  0  0  0  0  0  0
   40.6670   37.6860   31.3950 C   0  0  0  0  0  0  0  0  0  0  0  0
   43.1990   39.5180   30.8280 C   0  0  0  0  0  0  0  0  0  0  0  0
   42.7910   42.0150   30.1800 O   0  0  0  0  0  0  0  0  0  0  0  0
   40.6390   39.1350   30.9960 C   0  0  0  0  0  0  0  0  0  0  0  0
   39.2120   37.4420   31.3730 C   0  0  0  0  0  0  0  0  0  0  0  0
   43.6960   40.6670   30.2400 C   0  0  0  0  0  0  0  0  0  0  0  0
   33.7750   34.4670   33.4650 C   0  0  0  0  0  0  0  0  0  0  0  0
   41.7890   39.4520   30.3120 N   0  0  0  0  0  0  0  0  0  0  0  0
   41.1500   39.9870   31.5110 C   0  0  0  0  0  0  0  0  0  0  0  0
   43.3420   40.1590   28.6440 C   0  0  0  0  0  0  0  0  0  0  0  0
   36.2510   37.7970   32.1870 N   0  0  0  0  0  0  0  0  0  0  0  0
   42.2270   39.4370   29.0320 C   0  0  0  0  0  0  0  0  0  0  0  0
   37.2540   38.3830   32.4940 C   0  0  0  0  0  0  0  0  0  0  0  0
   36.3560   36.5950   31.8350 N   0  0  0  0  0  0  0  0  0  0  0  0
   39.5110   39.4120   29.9800 O   0  0  0  0  0  0  0  0  0  0  0  0
   38.3640   38.5560   31.6590 N   0  0  0  0  0  0  0  0  0  0  0  0
   35.0560   35.0700   33.2840 C   0  0  0  0  0  0  0  0  0  0  0  0
   32.6940   34.4940   32.4310 C   0  0  0  0  0  0  0  0  0  0  0  0
  1 21  1  0
  2 17  1  0
  2 20  1  0
  3  1  1  0
  3  2  1  0
  7 18  1  0
  7  4  1  0
  7 12  1  0
  8  4  1  0
  8 19  1  0
  9  6  1  0
  9  5  1  0
 11 15  1  0
 11  5  1  0
 11  7  1  0
 11 12  1  0
 13 15  1  0
 13  9  1  0
 14 16  1  0
 17 14  1  0
 19 16  1  0
 20 10  2  0
 21 10  1  0
M  END
$$$$

     RDKit          3D

 12 12  0  0  0  0  0  0  0  0999 V2000
   41.4200   39.5820   34.0290 N   0  0  0  0  0  0  0  0  0  0  0  0
   39.9090   37.2330   32.5020 C   0  0  0  0  0  0  0  0  0  0  0  0
   41.7570   40.2260   31.7970 O   0  0  0  0  0  0  0  0  0  0  0  0
   41.1670   40.1780   32.8610 C   0  0  0  0  0  0  0  0  0  0  0  0
   37.2610   37.4670   31.5470 C   0  0  0  0  0  0  0  0  0  0  0  0
   38.0250   38.4910   31.5740 C   0  0  0  0  0  0  0  0  0  0  0  0
   35.8660   37.2390   31.7350 C   0  0  0  0  0  0  0  0  0  0  0  0
   39.9660   39.6890   32.1650 N   0  0  0  0  0  0  0  0  0  0  0  0
   39.3330   38.4190   32.0770 C   0  0  0  0  0  0  0  0  0  0  0  0
   35.0250   37.6110   30.5570 N   0  0  0  0  0  0  0  0  0  0  0  0
   39.0800   36.0940   32.5320 C   0  0  0  0  0  0  0  0  0  0  0  0
   37.7810   36.1580   32.0610 C   0  0  0  0  0  0  0  0  0  0  0  0
  2 11  1  0
  4  3  1  0
  4  1  1  0
  5  6  2  0
  5  7  1  0
  5 12  1  0
  6  9  1  0
  8  4  1  0
  9  8  1  0
  9  2  2  0
 10  7  1  0
 12 11  2  0
M  END
$$$$

     RDKit          3D

 23 26  0  0  0  0  0  0  0  0999 V2000
   43.8400   39.9430   29.3590 N   0  0  0  0  0  0  0  0  0  0  0  0
   41.6980   38.0270   32.1220 N   0  0  0  0  0  0  0  0  0  0  0  0
   32.1330   36.2450   35.9660 C   0  0  0  0  0  0  0  0  0  0  0  0
   42.9040   38.4050   31.5550 C   0  0  0  0  0  0  0  0  0  0  0  0
   34.4710   34.9390   33.7820 N   0  0  0  0  0  0  0  0  0  0  0  0
   38.1450   37.1240   32.5890 C   0  0  0  0  0  0  0  0  0  0  0  0
   39.5760   39.0690   32.4170 C   0  0  0  0  0  0  0  0  0  0  0  0
   36.5340   34.8640   33.5340 N   0  0  0  0  0  0  0  0  0  0  0  0
   34.7910   36.0420   32.9880 N   0  0  0  0  0  0  0  0  0  0  0  0
   35.4830   34.2090   33.9530 C   0  0  0  0  0  0  0  0  0  0  0  0
   42.0960   39.4880   30.9030 N   0  0  0  0  0  0  0  0  0  0  0  0
   40.9490   39.4390   31.8470 C   0  0  0  0  0  0  0  0  0  0  0  0
   37.2590   38.3940   30.3780 C   0  0  0  0  0  0  0  0  0  0  0  0
   33.6780   33.1430   34.7230 N   0  0  0  0  0  0  0  0  0  0  0  0
   36.4120   37.7310   31.1720 C   0  0  0  0  0  0  0  0  0  0  0  0
   36.8620   36.9090   32.1840 C   0  0  0  0  0  0  0  0  0  0  0  0
   32.7070   34.9830   35.6260 O   0  0  0  0  0  0  0  0  0  0  0  0
   42.4380   40.1470   29.6620 C   0  0  0  0  0  0  0  0  0  0  0  0
   38.8160   38.1750   31.9870 C   0  0  0  0  0  0  0  0  0  0  0  0
   33.4200   34.5290   34.5710 C   0  0  0  0  0  0  0  0  0  0  0  0
   38.5640   38.4980   30.7730 C   0  0  0  0  0  0  0  0  0  0  0  0
   35.0330   32.9490   34.4720 C   0  0  0  0  0  0  0  0  0  0  0  0
   36.0490   35.9560   32.8830 C   0  0  0  0  0  0  0  0  0  0  0  0
  1 18  1  0
  4  2  1  0
  5 10  1  0
  5 20  1  0
  8 10  1  0
  9  5  1  0
 10 22  1  0
 11  4  1  0
 11 12  1  0
 12  2  1  0
 12  7  1  0
 13 21  2  0
 13 15  1  0
 15 16  2  0
 16  6  1  0
 16 23  1  0
 17  3  1  0
 18 11  1  0
 19  7  1  0
 19  6  2  0
 20 14  2  0
 20 17  1  0
 21 19  1  0
 22 14  1  0
 23  9  1  0
 23  8  2  0
M  END
$$$$

     RDKit          3D

 10 10  0  0  0  0  0  0  0  0999 V2000
   39.3170   37.9270   31.9680 C   0  0  0  0  0  0  0  0  0  0  0  0
   39.3600   35.8420   33.0720 N   0  0  0  0  0  0  0  0  0  0  0  0
   38.5310   38.8840   31.3550 C   0  0  0  0  0  0  0  0  0  0  0  0
   35.1810   37.4060   30.6220 C   0  0  0  0  0  0  0  0  0  0  0  0
   37.4070   36.4760   31.9470 C   0  0  0  0  0  0  0  0  0  0  0  0
   36.5790   37.4000   31.2940 C   0  0  0  0  0  0  0  0  0  0  0  0
   37.1970   38.6000   31.0520 C   0  0  0  0  0  0  0  0  0  0  0  0
   41.7560   38.2950   31.3530 N   0  0  0  0  0  0  0  0  0  0  0  0
   40.7300   38.2630   32.3870 C   0  0  0  0  0  0  0  0  0  0  0  0
   38.7090   36.7570   32.3540 C   0  0  0  0  0  0  0  0  0  0  0  0
  1 10  1  0
  1  9  1  0
  3  1  2  0
  4  6  1  0
  5 10  2  0
  6  5  1  0
  7  6  2  0
  7  3  1  0
  8  9  1  0
 10  2  1  0
M  END
$$$$

     RDKit          3D

  8  8  0  0  0  0  0  0  0  0999 V2000
   37.7420   38.0490   31.0270 C   0  0  0  0  0  0  0  0  0  0  0  0
   38.3990   36.2530   32.8660 C   0  0  0  0  0  0  0  0  0  0  0  0
   40.0790   38.4290   30.7060 O   0  0  0  0  0  0  0  0  0  0  0  0
   39.4180   36.8090   32.2050 C   0  0  0  0  0  0  0  0  0  0  0  0
   36.7230   37.2900   31.6590 C   0  0  0  0  0  0  0  0  0  0  0  0
   37.1170   36.4290   32.6430 C   0  0  0  0  0  0  0  0  0  0  0  0
   39.0730   37.7750   31.3450 C   0  0  0  0  0  0  0  0  0  0  0  0
   35.2950   37.1340   31.5800 N   0  0  0  0  0  0  0  0  0  0  0  0
  1  7  2  0
  1  5  1  0
  3  7  1  0
  4  2  2  0
  5  6  2  0
  6  2  1  0
  7  4  1  0
  8  5  1  0
M  END
$$$$

     RDKit          3D

 12 13  0  0  0  0  0  0  0  0999 V2000
   37.6360   37.5800   31.9440 C   0  0  0  0  0  0  0  0  0  0  0  0
   38.9420   37.1970   31.7510 N   0  0  0  0  0  0  0  0  0  0  0  0
   38.7060   35.0430   32.7840 C   0  0  0  0  0  0  0  0  0  0  0  0
   36.7280   36.4890   32.5960 C   0  0  0  0  0  0  0  0  0  0  0  0
   34.9440   34.8420   33.9610 C   0  0  0  0  0  0  0  0  0  0  0  0
   39.4890   36.0060   32.2580 C   0  0  0  0  0  0  0  0  0  0  0  0
   36.2050   34.2950   33.6070 C   0  0  0  0  0  0  0  0  0  0  0  0
   34.6010   36.0600   33.6200 C   0  0  0  0  0  0  0  0  0  0  0  0
   37.2060   38.7580   31.3680 N   0  0  0  0  0  0  0  0  0  0  0  0
   35.2750   36.8980   32.7310 C   0  0  0  0  0  0  0  0  0  0  0  0
   37.2270   35.2450   32.9990 C   0  0  0  0  0  0  0  0  0  0  0  0
   36.5810   33.0220   33.7820 O   0  0  0  0  0  0  0  0  0  0  0  0
  1  4  1  0
  2  1  2  0
  2  6  1  0
  3 11  1  0
  4 10  2  0
  4 11  1  0
  6  3  2  0
  7 12  1  0
  7  5  1  0
  8  5  2  0
  9  1  1  0
 10  8  1  0
 11  7  2  0
M  END
$$$$

     RDKit          3D

 28 29  0  0  0  0  0  0  0  0999 V2000
   32.1510   35.9630   31.2080 C   0  0  0  0  0  0  0  0  0  0  0  0
   41.2070   37.9250   33.3630 C   0  0  0  0  0  0  0  0  0  0  0  0
   35.7150   37.8660   31.2830 N   0  0  0  0  0  0  0  0  0  0  0  0
   32.2850   37.1660   30.5430 C   0  0  0  0  0  0  0  0  0  0  0  0
   30.9710   35.3280   30.7660 F   0  0  0  0  0  0  0  0  0  0  0  0
   38.1200   36.9350   31.5310 C   0  0  0  0  0  0  0  0  0  0  0  0
   42.7640   40.6440   32.9010 C   0  0  0  0  0  0  0  0  0  0  0  0
   33.5580   37.7200   30.5260 C   0  0  0  0  0  0  0  0  0  0  0  0
   40.2240   36.7800   33.2550 C   0  0  0  0  0  0  0  0  0  0  0  0
   40.5360   41.3480   31.7880 C   0  0  0  0  0  0  0  0  0  0  0  0
   41.2320   40.5280   32.7770 C   0  0  0  0  0  0  0  0  0  0  0  0
   35.6390   35.3220   32.2810 C   0  0  0  0  0  0  0  0  0  0  0  0
   34.4400   35.9580   31.8070 C   0  0  0  0  0  0  0  0  0  0  0  0
   34.6230   37.1550   31.1760 C   0  0  0  0  0  0  0  0  0  0  0  0
   37.9810   34.6810   32.2110 C   0  0  0  0  0  0  0  0  0  0  0  0
   40.6300   39.0920   32.6890 C   0  0  0  0  0  0  0  0  0  0  0  0
   39.2550   36.8730   32.2450 O   0  0  0  0  0  0  0  0  0  0  0  0
   38.6960   40.0320   30.5490 C   0  0  0  0  0  0  0  0  0  0  0  0
   37.5640   39.3850   31.3230 C   0  0  0  0  0  0  0  0  0  0  0  0
   39.1110   41.0550   31.5070 N   0  0  0  0  0  0  0  0  0  0  0  0
   43.3870   41.2930   34.1400 C   0  0  0  0  0  0  0  0  0  0  0  0
   36.0180   38.9790   29.5230 O   0  0  0  0  0  0  0  0  0  0  0  0
   40.9000   42.3130   31.1840 O   0  0  0  0  0  0  0  0  0  0  0  0
   37.1010   35.9620   32.1430 C   0  0  0  0  0  0  0  0  0  0  0  0
   35.5110   34.2130   32.9270 O   0  0  0  0  0  0  0  0  0  0  0  0
   36.4470   38.7220   30.6200 C   0  0  0  0  0  0  0  0  0  0  0  0
   38.0500   33.5870   32.3610 C   0  0  0  0  0  0  0  0  0  0  0  0
   33.1930   35.3680   31.9310 C   0  0  0  0  0  0  0  0  0  0  0  0
  1 28  1  0
  4  1  2  0
  5  1  1  0
  6 24  1  0
  6 17  1  0
  7 21  1  0
  8  4  1  0
  8 14  2  0
  9  2  1  0
 10 11  1  0
 11  7  1  0
 12 25  1  0
 13 28  2  0
 13 12  1  0
 14  3  1  0
 14 13  1  0
 15 27  2  0
 16 11  1  0
 16  2  1  0
 17  9  1  0
 18 19  1  0
 18 20  1  0
 20 10  1  0
 22 26  2  0
 23 10  2  0
 24 15  1  0
 24 12  1  0
 26  3  1  0
 26 19  1  0
M  END
$$$$

     RDKit          3D

  8  8  0  0  0  0  0  0  0  0999 V2000
   36.9630   35.0210   32.8640 O   0  0  0  0  0  0  0  0  0  0  0  0
   37.9240   38.8390   31.3870 Br  0  0  0  0  0  0  0  0  0  0  0  0
   38.1530   35.3090   32.9680 N   0  0  0  0  0  0  0  0  0  0  0  0
   38.1020   36.0370   32.0900 C   0  0  0  0  0  0  0  0  0  0  0  0
   39.5380   36.3430   31.6060 C   0  0  0  0  0  0  0  0  0  0  0  0
   34.7260   35.2370   32.1130 C   0  0  0  0  0  0  0  0  0  0  0  0
   37.0230   36.7830   31.7450 N   0  0  0  0  0  0  0  0  0  0  0  0
   36.0970   35.8000   32.2060 C   0  0  0  0  0  0  0  0  0  0  0  0
  1  3  1  0
  2  7  1  0
  4  5  1  0
  4  3  1  0
  7  4  1  0
  7  8  1  0
  8  6  1  0
  8  1  1  0
M  END
$$$$

     RDKit          3D

 24 27  0  0  0  0  0  0  0  0999 V2000
   37.9920   39.8070   30.4830 C   0  0  0  0  0  0  0  0  0  0  0  0
   41.8700   37.7160   30.9320 C   0  0  0  0  0  0  0  0  0  0  0  0
   38.0850   38.5830   31.2820 C   0  0  0  0  0  0  0  0  0  0  0  0
   40.5220   38.0990   31.3250 N   0  0  0  0  0  0  0  0  0  0  0  0
   31.4290   33.3340   32.3820 C   0  0  0  0  0  0  0  0  0  0  0  0
   41.9930   39.5020   32.6290 N   0  0  0  0  0  0  0  0  0  0  0  0
   42.7150   40.6490   33.1700 C   0  0  0  0  0  0  0  0  0  0  0  0
   33.7870   34.8290   32.5470 C   0  0  0  0  0  0  0  0  0  0  0  0
   39.2670   37.8860   31.6660 C   0  0  0  0  0  0  0  0  0  0  0  0
   44.1280   40.4940   32.6460 C   0  0  0  0  0  0  0  0  0  0  0  0
   44.3020   41.8200   31.7210 C   0  0  0  0  0  0  0  0  0  0  0  0
   34.7610   36.9170   31.8400 N   0  0  0  0  0  0  0  0  0  0  0  0
   38.8660   36.7000   32.3930 N   0  0  0  0  0  0  0  0  0  0  0  0
   44.0230   39.4850   31.4850 C   0  0  0  0  0  0  0  0  0  0  0  0
   42.7820   38.6910   31.7180 C   0  0  0  0  0  0  0  0  0  0  0  0
   31.7120   33.9100   33.6690 C   0  0  0  0  0  0  0  0  0  0  0  0
   36.9540   37.7830   31.7120 C   0  0  0  0  0  0  0  0  0  0  0  0
   36.5180   35.5360   33.0630 S   0  0  0  0  0  0  0  0  0  0  0  0
   33.0030   34.6120   33.8070 C   0  0  0  0  0  0  0  0  0  0  0  0
   35.6290   37.9440   31.5120 C   0  0  0  0  0  0  0  0  0  0  0  0
   35.0030   35.8080   32.4820 C   0  0  0  0  0  0  0  0  0  0  0  0
   33.2540   34.5100   31.3770 N   0  0  0  0  0  0  0  0  0  0  0  0
   37.4240   36.5790   32.3850 C   0  0  0  0  0  0  0  0  0  0  0  0
   32.0190   33.8770   31.2430 N   0  0  0  0  0  0  0  0  0  0  0  0
  2  4  1  0
  3  1  1  0
  3  9  1  0
  3 17  1  0
  4  9  1  0
  5 16  1  0
  6  7  1  0
  8 19  1  0
  9 13  2  0
 10 11  1  0
 10  7  1  0
 12 21  1  0
 14 15  1  0
 14 10  1  0
 15  2  1  0
 15  6  1  0
 16 19  2  0
 17 23  2  0
 20 17  1  0
 20 12  2  0
 21  8  1  0
 21 18  1  0
 22  8  2  0
 23 13  1  0
 23 18  1  0
 24 22  1  0
 24  5  2  0
M  END
$$$$

     RDKit          3D

 13 13  0  0  0  0  0  0  0  0999 V2000
   36.0050   36.6890   31.6980 N   0  0  0  0  0  0  0  0  0  0  0  0
   34.3060   33.4550   34.0560 O   0  0  0  0  0  0  0  0  0  0  0  0
   37.9260   33.9180   30.6080 O   0  0  0  0  0  0  0  0  0  0  0  0
   34.8190   34.5260   33.4220 C   0  0  0  0  0  0  0  0  0  0  0  0
   38.9350   36.0740   31.3760 O   0  0  0  0  0  0  0  0  0  0  0  0
   37.8870   35.1770   31.2240 C   0  0  0  0  0  0  0  0  0  0  0  0
   33.2210   36.2150   33.7720 O   0  0  0  0  0  0  0  0  0  0  0  0
   35.9650   34.6010   32.5830 C   0  0  0  0  0  0  0  0  0  0  0  0
   34.3080   35.8720   33.1490 C   0  0  0  0  0  0  0  0  0  0  0  0
   36.1060   33.4980   32.4960 O   0  0  0  0  0  0  0  0  0  0  0  0
   36.5460   35.5300   31.7390 C   0  0  0  0  0  0  0  0  0  0  0  0
   34.8430   36.7580   32.2500 C   0  0  0  0  0  0  0  0  0  0  0  0
   35.1960   32.3080   34.2800 C   0  0  0  0  0  0  0  0  0  0  0  0
  1 11  2  0
  1 12  1  0
  2 13  1  0
  3  6  2  0
  4  2  1  0
  6  5  1  0
  6 11  1  0
  8  4  1  0
  9  4  1  0
  9  7  1  0
 10  8  2  0
 11  8  1  0
 12  9  2  0
M  END
$$$$

     RDKit          3D

 35 38  0  0  0  0  0  0  0  0999 V2000
   36.7520   37.4280   31.4640 C   0  0  0  0  0  0  0  0  0  0  0  0
   41.7790   37.9300   31.4480 C   0  0  0  0  0  0  0  0  0  0  0  0
   35.5130   37.1640   30.9090 C   0  0  0  0  0  0  0  0  0  0  0  0
   44.2890   44.0980   30.2330 C   0  0  0  0  0  0  0  0  0  0  0  0
   37.1740   36.5750   32.4900 C   0  0  0  0  0  0  0  0  0  0  0  0
   35.3170   38.1700   29.9000 C   0  0  0  0  0  0  0  0  0  0  0  0
   40.3060   37.5730   31.7890 C   0  0  0  0  0  0  0  0  0  0  0  0
   32.7230   33.6790   31.3780 O   0  0  0  0  0  0  0  0  0  0  0  0
   42.9320   43.4930   30.2930 C   0  0  0  0  0  0  0  0  0  0  0  0
   41.4060   40.2830   30.9250 O   0  0  0  0  0  0  0  0  0  0  0  0
   39.4340   38.7460   32.1830 C   0  0  0  0  0  0  0  0  0  0  0  0
   38.9220   40.3280   30.3430 C   0  0  0  0  0  0  0  0  0  0  0  0
   42.6640   37.7840   30.1650 C   0  0  0  0  0  0  0  0  0  0  0  0
   36.7270   39.7230   28.6950 C   0  0  0  0  0  0  0  0  0  0  0  0
   38.6450   41.3380   29.2740 C   0  0  0  0  0  0  0  0  0  0  0  0
   36.4860   38.9100   29.8430 C   0  0  0  0  0  0  0  0  0  0  0  0
   32.3250   33.1150   33.7260 C   0  0  0  0  0  0  0  0  0  0  0  0
   42.0580   41.2700   30.6680 C   0  0  0  0  0  0  0  0  0  0  0  0
   35.0760   35.3170   32.4960 C   0  0  0  0  0  0  0  0  0  0  0  0
   37.3260   38.5860   30.8570 N   0  0  0  0  0  0  0  0  0  0  0  0
   36.0090   39.4800   27.6000 O   0  0  0  0  0  0  0  0  0  0  0  0
   36.3950   35.5200   32.9560 C   0  0  0  0  0  0  0  0  0  0  0  0
   34.1860   34.4010   33.0890 N   0  0  0  0  0  0  0  0  0  0  0  0
   38.4530   39.2490   31.1470 C   0  0  0  0  0  0  0  0  0  0  0  0
   33.0170   32.0370   35.8240 O   0  0  0  0  0  0  0  0  0  0  0  0
   42.3160   39.7680   33.0040 N   0  0  0  0  0  0  0  0  0  0  0  0
   33.1480   33.7550   32.5630 C   0  0  0  0  0  0  0  0  0  0  0  0
   32.7160   33.3100   35.2020 C   0  0  0  0  0  0  0  0  0  0  0  0
   34.8830   33.5400   34.1270 C   0  0  0  0  0  0  0  0  0  0  0  0
   34.6420   36.1530   31.4070 C   0  0  0  0  0  0  0  0  0  0  0  0
   41.7900   39.3110   31.8190 C   0  0  0  0  0  0  0  0  0  0  0  0
   43.1760   42.0320   30.5880 C   0  0  0  0  0  0  0  0  0  0  0  0
   34.0480   34.0830   35.2570 C   0  0  0  0  0  0  0  0  0  0  0  0
   32.5880   31.7520   33.4500 O   0  0  0  0  0  0  0  0  0  0  0  0
   37.5840   40.7960   28.4180 C   0  0  0  0  0  0  0  0  0  0  0  0
  1  5  1  0
  2 13  1  0
  2  7  1  0
  2 31  1  0
  3 30  1  0
  3  1  2  0
  4  9  1  0
  5 22  2  0
  6  3  1  0
  7 11  1  0
  8 27  2  0
  9 32  1  0
 10 31  1  0
 12 24  2  0
 14 16  1  0
 15 12  1  0
 16  6  2  0
 16 20  1  0
 17 34  1  0
 17 28  1  0
 18 10  1  0
 19 22  1  0
 19 23  1  0
 20 24  1  0
 20  1  1  0
 21 14  1  0
 23 29  1  0
 24 11  1  0
 27 23  1  0
 27 17  1  0
 28 33  1  0
 28 25  1  0
 29 33  1  0
 30 19  2  0
 31 26  1  0
 32 18  1  0
 35 14  2  0
 35 15  1  0
M  END
$$$$

     RDKit          3D

 18 18  0  0  0  0  0  0  0  0999 V2000
   36.7030   38.9520   30.3180 N   0  0  0  0  0  0  0  0  0  0  0  0
   40.7320   38.6900   31.8880 N   0  0  0  0  0  0  0  0  0  0  0  0
   33.2560   33.9090   31.9020 C   0  0  0  0  0  0  0  0  0  0  0  0
   39.7890   36.7820   32.8290 O   0  0  0  0  0  0  0  0  0  0  0  0
   42.7100   39.6970   32.5270 N   0  0  0  0  0  0  0  0  0  0  0  0
   39.6800   37.9050   32.2880 C   0  0  0  0  0  0  0  0  0  0  0  0
   42.1600   38.4500   32.0060 C   0  0  0  0  0  0  0  0  0  0  0  0
   37.1160   38.1110   31.1810 C   0  0  0  0  0  0  0  0  0  0  0  0
   35.4240   36.6660   30.3860 C   0  0  0  0  0  0  0  0  0  0  0  0
   32.8370   33.8790   33.2960 N   0  0  0  0  0  0  0  0  0  0  0  0
   35.3330   34.6290   32.8230 C   0  0  0  0  0  0  0  0  0  0  0  0
   35.2060   33.2370   33.4740 C   0  0  0  0  0  0  0  0  0  0  0  0
   33.8070   32.7870   33.8430 C   0  0  0  0  0  0  0  0  0  0  0  0
   34.5630   35.4200   30.4720 C   0  0  0  0  0  0  0  0  0  0  0  0
   38.3050   38.3950   32.0320 N   0  0  0  0  0  0  0  0  0  0  0  0
   36.3380   36.9990   31.2800 N   0  0  0  0  0  0  0  0  0  0  0  0
   34.4160   34.8980   31.8810 C   0  0  0  0  0  0  0  0  0  0  0  0
   34.8250   37.5870   29.3670 C   0  0  0  0  0  0  0  0  0  0  0  0
  1  8  2  0
  2  7  1  0
  2  6  1  0
  3 10  1  0
  6  4  2  0
  7  5  1  0
  8 16  1  0
  8 15  1  0
  9 18  1  0
  9 14  1  0
  9 16  1  0
 10 13  1  0
 11 12  1  0
 12 13  1  0
 15  6  1  0
 17 14  1  0
 17  3  1  0
 17 11  1  0
M  END
$$$$

     RDKit          3D

 16 17  0  0  0  0  0  0  0  0999 V2000
   35.6530   34.4900   32.1440 C   0  0  0  0  0  0  0  0  0  0  0  0
   39.2810   39.2010   32.5810 C   0  0  0  0  0  0  0  0  0  0  0  0
   39.8900   36.8780   32.5560 C   0  0  0  0  0  0  0  0  0  0  0  0
   34.2980   34.8530   31.6070 C   0  0  0  0  0  0  0  0  0  0  0  0
   42.0250   38.9250   32.0500 Br  0  0  0  0  0  0  0  0  0  0  0  0
   34.5340   36.8680   30.1070 O   0  0  0  0  0  0  0  0  0  0  0  0
   33.2180   33.7540   29.6470 N   0  0  0  0  0  0  0  0  0  0  0  0
   33.6080   33.5810   31.0660 C   0  0  0  0  0  0  0  0  0  0  0  0
   37.8790   35.3220   32.4420 N   0  0  0  0  0  0  0  0  0  0  0  0
   37.6090   37.5430   32.2300 C   0  0  0  0  0  0  0  0  0  0  0  0
   36.4970   35.7090   32.3000 C   0  0  0  0  0  0  0  0  0  0  0  0
   40.2540   38.2030   32.5660 C   0  0  0  0  0  0  0  0  0  0  0  0
   37.9330   38.8950   32.4160 C   0  0  0  0  0  0  0  0  0  0  0  0
   36.4780   37.0990   31.8530 N   0  0  0  0  0  0  0  0  0  0  0  0
   38.5340   36.5660   32.4490 C   0  0  0  0  0  0  0  0  0  0  0  0
   34.3700   35.9270   30.5860 C   0  0  0  0  0  0  0  0  0  0  0  0
  1 11  1  0
  3 12  2  0
  4 16  1  0
  4  1  1  0
  5 12  1  0
  6 16  1  0
  7  8  1  0
  8  4  1  0
  9 15  1  0
 10 13  1  0
 10 15  2  0
 11  9  2  0
 12  2  1  0
 13  2  2  0
 14 10  1  0
 14 11  1  0
 15  3  1  0
M  END
$$$$

     RDKit          3D

 18 20  0  0  0  0  0  0  0  0999 V2000
   37.0230   35.1310   32.0640 C   0  0  0  0  0  0  0  0  0  0  0  0
   35.2000   33.8610   31.9480 N   0  0  0  0  0  0  0  0  0  0  0  0
   36.4940   30.6310   33.7590 C   0  0  0  0  0  0  0  0  0  0  0  0
   32.5630   33.3820   31.8020 C   0  0  0  0  0  0  0  0  0  0  0  0
   34.0040   33.0350   32.1370 C   0  0  0  0  0  0  0  0  0  0  0  0
   35.7400   35.0640   31.4930 C   0  0  0  0  0  0  0  0  0  0  0  0
   36.1950   33.2570   32.5960 C   0  0  0  0  0  0  0  0  0  0  0  0
   34.1990   36.0890   29.9430 O   0  0  0  0  0  0  0  0  0  0  0  0
   35.6490   38.3070   29.9830 O   0  0  0  0  0  0  0  0  0  0  0  0
   38.2410   38.5860   30.9620 C   0  0  0  0  0  0  0  0  0  0  0  0
   34.4550   31.7420   32.5900 O   0  0  0  0  0  0  0  0  0  0  0  0
   35.2630   36.1920   30.7440 C   0  0  0  0  0  0  0  0  0  0  0  0
   37.3140   33.9610   32.6620 N   0  0  0  0  0  0  0  0  0  0  0  0
   37.3780   37.4020   31.1570 N   0  0  0  0  0  0  0  0  0  0  0  0
   39.3700   35.9680   32.1240 C   0  0  0  0  0  0  0  0  0  0  0  0
   35.8570   31.8230   32.9000 C   0  0  0  0  0  0  0  0  0  0  0  0
   36.1060   37.3720   30.6140 C   0  0  0  0  0  0  0  0  0  0  0  0
   37.9110   36.2440   31.8530 C   0  0  0  0  0  0  0  0  0  0  0  0
  1 13  1  0
  2  5  1  0
  2  7  1  0
  5  4  1  0
  5 11  1  0
  6  2  1  0
  6  1  2  0
  7 13  2  0
  7 16  1  0
  9 17  2  0
 10 14  1  0
 11 16  1  0
 12  8  1  0
 12  6  1  0
 14 18  1  0
 16  3  1  0
 17 12  1  0
 17 14  1  0
 18  1  1  0
 18 15  1  0
M  END
$$$$

     RDKit          3D

 28 30  0  0  0  0  0  0  0  0999 V2000
   42.0800   39.6670   30.1160 O   0  0  0  0  0  0  0  0  0  0  0  0
   40.3670   40.7100   31.4250 C   0  0  0  0  0  0  0  0  0  0  0  0
   34.4900   32.7050   34.0140 C   0  0  0  0  0  0  0  0  0  0  0  0
   35.1350   34.8620   32.9430 C   0  0  0  0  0  0  0  0  0  0  0  0
   33.7090   31.9620   34.9930 C   0  0  0  0  0  0  0  0  0  0  0  0
   41.2120   40.7520   30.2710 C   0  0  0  0  0  0  0  0  0  0  0  0
   35.4510   33.6250   33.3000 C   0  0  0  0  0  0  0  0  0  0  0  0
   40.5700   41.2390   29.0570 C   0  0  0  0  0  0  0  0  0  0  0  0
   38.4450   36.4690   32.0480 C   0  0  0  0  0  0  0  0  0  0  0  0
   36.0530   35.7400   32.3580 C   0  0  0  0  0  0  0  0  0  0  0  0
   39.8140   41.7020   32.4160 C   0  0  0  0  0  0  0  0  0  0  0  0
   34.0480   30.5160   35.1400 N   0  0  0  0  0  0  0  0  0  0  0  0
   44.0870   41.5060   29.3510 C   0  0  0  0  0  0  0  0  0  0  0  0
   45.6600   40.0540   30.2440 C   0  0  0  0  0  0  0  0  0  0  0  0
   33.2850   33.4060   34.5950 C   0  0  0  0  0  0  0  0  0  0  0  0
   39.3950   38.5750   31.0770 C   0  0  0  0  0  0  0  0  0  0  0  0
   43.3640   39.5910   30.7040 C   0  0  0  0  0  0  0  0  0  0  0  0
   38.1970   37.9590   31.8310 C   0  0  0  0  0  0  0  0  0  0  0  0
   33.7190   35.0640   32.8490 C   0  0  0  0  0  0  0  0  0  0  0  0
   41.8290   39.2980   32.7950 C   0  0  0  0  0  0  0  0  0  0  0  0
   35.3600   30.1390   34.5310 C   0  0  0  0  0  0  0  0  0  0  0  0
   37.4190   35.4170   32.3840 C   0  0  0  0  0  0  0  0  0  0  0  0
   35.6780   37.0040   31.9920 C   0  0  0  0  0  0  0  0  0  0  0  0
   35.5380   38.0540   31.7900 C   0  0  0  0  0  0  0  0  0  0  0  0
   43.1580   38.9400   32.0600 C   0  0  0  0  0  0  0  0  0  0  0  0
   32.5880   34.2620   33.5750 C   0  0  0  0  0  0  0  0  0  0  0  0
   44.3630   40.6510   30.5270 N   0  0  0  0  0  0  0  0  0  0  0  0
   40.4230   39.2930   32.0080 C   0  0  0  0  0  0  0  0  0  0  0  0
  1  6  1  0
  1 17  1  0
  2 28  1  0
  2 11  1  0
  3  7  1  0
  3 15  1  0
  3  5  1  0
  4 10  1  0
  4  7  1  0
  5 12  1  0
  6  2  2  0
  8  6  1  0
  9 22  1  0
 10 22  2  3
 13 27  1  0
 14 27  1  0
 15 26  1  0
 15  5  1  0
 16 18  1  0
 16 28  1  0
 17 25  2  0
 18  9  1  0
 19  4  1  0
 19 26  1  0
 21 12  1  0
 23 10  1  0
 24 23  3  0
 25 20  1  0
 27 17  1  0
 28 20  2  0
M  END
$$$$

     RDKit          3D

 20 21  0  0  0  0  0  0  0  0999 V2000
   34.9120   36.8890   31.4580 C   0  0  0  0  0  0  0  0  0  0  0  0
   35.6900   37.9850   31.3230 C   0  0  0  0  0  0  0  0  0  0  0  0
   36.6060   35.6970   32.3420 C   0  0  0  0  0  0  0  0  0  0  0  0
   36.3200   34.6630   30.5190 F   0  0  0  0  0  0  0  0  0  0  0  0
   34.9460   34.5980   33.3970 O   0  0  0  0  0  0  0  0  0  0  0  0
   35.7760   35.6820   31.1830 C   0  0  0  0  0  0  0  0  0  0  0  0
   35.3420   39.2750   30.7480 C   0  0  0  0  0  0  0  0  0  0  0  0
   36.5240   38.4540   30.2490 C   0  0  0  0  0  0  0  0  0  0  0  0
   34.1940   40.8080   29.3100 N   0  0  0  0  0  0  0  0  0  0  0  0
   36.2850   34.5260   33.0690 C   0  0  0  0  0  0  0  0  0  0  0  0
   34.4760   39.5960   29.5760 C   0  0  0  0  0  0  0  0  0  0  0  0
   38.4210   37.6700   32.5770 O   0  0  0  0  0  0  0  0  0  0  0  0
   36.5110   38.2710   29.0700 O   0  0  0  0  0  0  0  0  0  0  0  0
   37.6890   36.4810   32.7110 C   0  0  0  0  0  0  0  0  0  0  0  0
   37.2440   33.7270   33.0560 O   0  0  0  0  0  0  0  0  0  0  0  0
   39.5380   36.9990   32.3220 C   0  0  0  0  0  0  0  0  0  0  0  0
   39.0570   35.8600   32.6210 C   0  0  0  0  0  0  0  0  0  0  0  0
   36.1390   41.5910   29.0620 C   0  0  0  0  0  0  0  0  0  0  0  0
   40.7570   37.4180   31.9340 C   0  0  0  0  0  0  0  0  0  0  0  0
   34.9240   41.7170   28.5500 C   0  0  0  0  0  0  0  0  0  0  0  0
  2  1  1  0
  3 10  1  0
  6  4  1  0
  6  1  1  0
  6  3  1  0
  7 11  1  0
  7  2  1  0
  8 13  1  0
  8  7  1  0
  8  2  1  0
  9 11  1  0
 10  5  1  0
 12 14  1  0
 14  3  1  0
 15 10  2  0
 16 12  1  0
 16 17  1  0
 17 14  1  0
 19 16  2  0
 20 18  1  0
 20  9  1  0
M  END
$$$$

     RDKit          3D

  8  8  0  0  0  0  0  0  0  0999 V2000
   34.8160   34.1260   30.7400 C   0  0  0  0  0  0  0  0  0  0  0  0
   36.3960   35.9330   33.3930 N   0  0  0  0  0  0  0  0  0  0  0  0
   33.6820   34.7830   30.4540 C   0  0  0  0  0  0  0  0  0  0  0  0
   33.5140   35.9310   31.1910 C   0  0  0  0  0  0  0  0  0  0  0  0
   32.2510   37.0190   30.6680 Cl  0  0  0  0  0  0  0  0  0  0  0  0
   35.6370   34.3300   31.7890 C   0  0  0  0  0  0  0  0  0  0  0  0
   35.4850   35.5470   32.4600 C   0  0  0  0  0  0  0  0  0  0  0  0
   34.4020   36.3570   32.1560 C   0  0  0  0  0  0  0  0  0  0  0  0
  1  6  1  0
  3  1  2  0
  3  4  1  0
  4  8  2  0
  5  4  1  0
  6  7  2  0
  7  2  1  0
  8  7  1  0
M  END
$$$$

     RDKit          3D

 25 28  0  0  0  0  0  0  0  0999 V2000
   35.6860   31.5380   32.8030 C   0  0  0  0  0  0  0  0  0  0  0  0
   35.4830   35.8190   32.3210 C   0  0  0  0  0  0  0  0  0  0  0  0
   38.4940   37.0920   31.0120 N   0  0  0  0  0  0  0  0  0  0  0  0
   37.7100   35.1020   32.5450 C   0  0  0  0  0  0  0  0  0  0  0  0
   34.5740   36.5560   31.6380 N   0  0  0  0  0  0  0  0  0  0  0  0
   36.8080   35.9670   32.0770 C   0  0  0  0  0  0  0  0  0  0  0  0
   34.0450   33.9280   35.2980 N   0  0  0  0  0  0  0  0  0  0  0  0
   30.6770   37.9800   28.5880 C   0  0  0  0  0  0  0  0  0  0  0  0
   34.9660   37.4180   30.7090 C   0  0  0  0  0  0  0  0  0  0  0  0
   30.7100   38.9940   29.4850 C   0  0  0  0  0  0  0  0  0  0  0  0
   34.0020   38.0940   29.8280 C   0  0  0  0  0  0  0  0  0  0  0  0
   34.0960   33.1140   34.2150 C   0  0  0  0  0  0  0  0  0  0  0  0
   31.6490   36.8470   28.7350 C   0  0  0  0  0  0  0  0  0  0  0  0
   35.1530   34.9100   33.2040 N   0  0  0  0  0  0  0  0  0  0  0  0
   35.9680   33.9630   33.4560 C   0  0  0  0  0  0  0  0  0  0  0  0
   37.2040   34.1180   33.1520 N   0  0  0  0  0  0  0  0  0  0  0  0
   35.4270   32.6320   33.8710 C   0  0  0  0  0  0  0  0  0  0  0  0
   39.0670   35.2600   32.3270 C   0  0  0  0  0  0  0  0  0  0  0  0
   39.5180   36.4940   31.7600 C   0  0  0  0  0  0  0  0  0  0  0  0
   31.9260   39.2420   30.3210 C   0  0  0  0  0  0  0  0  0  0  0  0
   33.5640   32.3250   33.5720 O   0  0  0  0  0  0  0  0  0  0  0  0
   36.3010   37.7070   30.5620 C   0  0  0  0  0  0  0  0  0  0  0  0
   37.1870   36.9470   31.2130 C   0  0  0  0  0  0  0  0  0  0  0  0
   32.7270   37.9980   30.5550 C   0  0  0  0  0  0  0  0  0  0  0  0
   32.0240   36.7880   30.1250 N   0  0  0  0  0  0  0  0  0  0  0  0
  2 14  1  0
  3 23  2  0
  3 19  1  0
  4 16  2  0
  5  2  2  0
  6 23  1  0
  6  2  1  0
  6  4  1  0
  8 13  1  0
  8 10  1  0
  9  5  1  0
 10 20  1  0
 11  9  1  0
 12  7  1  0
 13 25  1  0
 14 15  2  0
 15 17  1  0
 16 15  1  0
 17  1  1  0
 17 12  1  0
 18  4  1  0
 19 18  1  0
 20 24  1  0
 21 12  2  0
 22  9  2  0
 22 23  1  0
 24 11  1  0
 25 24  1  0
M  END
$$$$

     RDKit          3D

 16 18  0  0  0  0  0  0  0  0999 V2000
   38.7690   41.2470   29.6520 C   0  0  0  0  0  0  0  0  0  0  0  0
   37.8010   40.2330   29.8160 C   0  0  0  0  0  0  0  0  0  0  0  0
   38.5090   37.6200   32.1660 C   0  0  0  0  0  0  0  0  0  0  0  0
   37.8350   33.9170   31.3960 S   0  0  0  0  0  0  0  0  0  0  0  0
   38.1090   39.4830   30.8790 C   0  0  0  0  0  0  0  0  0  0  0  0
   35.5290   36.9350   31.3600 N   0  0  0  0  0  0  0  0  0  0  0  0
   38.0470   36.3280   32.2440 C   0  0  0  0  0  0  0  0  0  0  0  0
   36.3840   34.8600   31.4910 O   0  0  0  0  0  0  0  0  0  0  0  0
   36.6910   36.1390   31.8610 N   0  0  0  0  0  0  0  0  0  0  0  0
   38.7880   35.1040   32.2140 C   0  0  0  0  0  0  0  0  0  0  0  0
   39.4320   39.9560   31.4230 C   0  0  0  0  0  0  0  0  0  0  0  0
   38.6910   42.1000   28.6030 N   0  0  0  0  0  0  0  0  0  0  0  0
   39.7530   41.0420   30.6930 C   0  0  0  0  0  0  0  0  0  0  0  0
   37.8680   38.5000   31.5100 C   0  0  0  0  0  0  0  0  0  0  0  0
   39.7040   38.0620   32.7310 C   0  0  0  0  0  0  0  0  0  0  0  0
   40.1820   39.2870   32.3060 N   0  0  0  0  0  0  0  0  0  0  0  0
  1  2  2  0
  1 13  1  0
  3 15  1  0
  4  8  1  0
  4 10  1  0
  5  2  1  0
  5 11  1  0
  5 14  1  0
  6  9  1  0
  7  3  1  0
  8  9  1  0
  9  7  1  0
 10  7  1  0
 11 16  1  0
 12  1  1  0
 13 11  2  0
 14  3  2  0
 16 15  2  0
M  END
$$$$

     RDKit          3D

 13 13  0  0  0  0  0  0  0  0999 V2000
   33.1880   34.9580   34.2830 C   0  0  0  0  0  0  0  0  0  0  0  0
   39.4680   39.4870   29.5330 C   0  0  0  0  0  0  0  0  0  0  0  0
   37.2190   39.1930   30.1660 C   0  0  0  0  0  0  0  0  0  0  0  0
   35.1080   33.4760   33.9960 C   0  0  0  0  0  0  0  0  0  0  0  0
   37.9090   36.7180   30.5140 C   0  0  0  0  0  0  0  0  0  0  0  0
   38.3960   38.2860   30.0350 C   0  0  0  0  0  0  0  0  0  0  0  0
   36.8320   36.6840   31.4960 C   0  0  0  0  0  0  0  0  0  0  0  0
   35.2580   35.6900   33.0720 C   0  0  0  0  0  0  0  0  0  0  0  0
   36.2540   33.1380   33.3250 C   0  0  0  0  0  0  0  0  0  0  0  0
   38.4050   35.6880   30.0610 O   0  0  0  0  0  0  0  0  0  0  0  0
   34.5460   34.7100   33.7230 C   0  0  0  0  0  0  0  0  0  0  0  0
   36.4830   35.4220   32.3750 C   0  0  0  0  0  0  0  0  0  0  0  0
   36.9450   34.0150   32.5000 C   0  0  0  0  0  0  0  0  0  0  0  0
  2  6  1  0
  5  7  1  0
  6  3  1  0
  6  5  1  0
  7 12  1  0
  8 11  2  0
  9  4  2  0
 10  5  2  0
 11  4  1  0
 11  1  1  0
 12 13  2  0
 12  8  1  0
 13  9  1  0
M  END
$$$$
