
     RDKit          3D

 13 13  0  0  0  0  0  0  0  0999 V2000
   38.4930   33.9860   30.9610 C   0  0  0  0  0  0  0  0  0  0  0  0
   40.6160   34.7800   28.9090 C   0  0  0  0  0  0  0  0  0  0  0  0
   38.5630   35.0400   30.2600 C   0  0  0  0  0  0  0  0  0  0  0  0
   37.2950   32.4140   32.8710 Cl  0  0  0  0  0  0  0  0  0  0  0  0
   37.6190   36.0660   30.1640 C   0  0  0  0  0  0  0  0  0  0  0  0
   39.8260   35.6570   29.5610 C   0  0  0  0  0  0  0  0  0  0  0  0
   37.3440   33.8890   31.8160 C   0  0  0  0  0  0  0  0  0  0  0  0
   36.5150   36.0290   31.0230 C   0  0  0  0  0  0  0  0  0  0  0  0
   36.3880   34.9570   31.8490 C   0  0  0  0  0  0  0  0  0  0  0  0
   42.8020   35.7390   28.3880 O   0  0  0  0  0  0  0  0  0  0  0  0
   42.5810   33.6260   28.7690 O   0  0  0  0  0  0  0  0  0  0  0  0
   40.6640   36.8510   29.3040 N   0  0  0  0  0  0  0  0  0  0  0  0
   42.0310   34.8470   28.7190 N   0  0  0  0  0  0  0  0  0  0  0  0
  1  7  1  0
  2  6  1  0
  3  1  2  0
  5  3  1  0
  5  8  2  0
  6 12  1  0
  6  3  1  0
  7  9  2  0
  7  4  1  0
  8  9  1  0
 10 13  2  0
 13 11  2  0
 13  2  1  0
M  END
$$$$

     RDKit          3D

  8  8  0  0  0  0  0  0  0  0999 V2000
   38.1940   34.8300   29.7130 C   0  0  0  0  0  0  0  0  0  0  0  0
   37.8770   31.1310   31.2380 O   0  0  0  0  0  0  0  0  0  0  0  0
   40.6670   34.3800   29.2910 C   0  0  0  0  0  0  0  0  0  0  0  0
   39.0640   32.7270   30.2890 C   0  0  0  0  0  0  0  0  0  0  0  0
   36.8030   34.3370   29.8860 C   0  0  0  0  0  0  0  0  0  0  0  0
   37.8400   32.3120   30.6720 C   0  0  0  0  0  0  0  0  0  0  0  0
   36.6800   33.0200   30.4110 C   0  0  0  0  0  0  0  0  0  0  0  0
   39.2560   33.9840   29.5790 N   0  0  0  0  0  0  0  0  0  0  0  0
  1  5  1  0
  3  8  1  0
  4  6  2  0
  5  7  2  0
  6  2  1  0
  7  6  1  0
  8  1  1  0
  8  4  1  0
M  END
$$$$

     RDKit          3D

 16 16  0  0  0  0  0  0  0  0999 V2000
   36.2250   36.4260   29.4950 C   0  0  0  0  0  0  0  0  0  0  0  0
   39.9040   35.0890   32.3330 N   0  0  0  0  0  0  0  0  0  0  0  0
   36.0300   34.3190   31.9910 C   0  0  0  0  0  0  0  0  0  0  0  0
   38.3290   33.0550   33.7280 C   0  0  0  0  0  0  0  0  0  0  0  0
   39.0730   31.2520   34.9500 O   0  0  0  0  0  0  0  0  0  0  0  0
   40.8170   34.1480   31.9650 O   0  0  0  0  0  0  0  0  0  0  0  0
   37.4650   36.0190   29.8500 C   0  0  0  0  0  0  0  0  0  0  0  0
   35.1490   35.0040   31.1370 C   0  0  0  0  0  0  0  0  0  0  0  0
   38.6480   34.2050   32.8660 C   0  0  0  0  0  0  0  0  0  0  0  0
   36.9110   32.6880   33.9950 C   0  0  0  0  0  0  0  0  0  0  0  0
   37.4590   34.4620   31.9210 C   0  0  0  0  0  0  0  0  0  0  0  0
   35.2150   35.8390   30.1040 N   0  0  0  0  0  0  0  0  0  0  0  0
   37.7310   35.3200   30.8840 C   0  0  0  0  0  0  0  0  0  0  0  0
   40.5520   32.8610   34.2920 O   0  0  0  0  0  0  0  0  0  0  0  0
   39.3760   32.3210   34.3750 C   0  0  0  0  0  0  0  0  0  0  0  0
   40.1390   35.8720   31.1750 O   0  0  0  0  0  0  0  0  0  0  0  0
  1  7  1  0
  1 12  2  0
  4 10  1  0
  4 15  1  0
  6  2  1  0
  7 13  2  0
  8  3  2  0
  9  2  1  0
  9  4  1  0
 11  3  1  0
 11  9  1  0
 12  8  1  0
 13 11  2  0
 14 15  2  0
 15  5  1  0
 16  2  1  0
M  END
$$$$

     RDKit          3D

  7  7  0  0  0  0  0  0  0  0999 V2000
   37.7140   36.2180   26.4710 O   0  0  0  0  0  0  0  0  0  0  0  0
   42.3320   34.4130   25.9080 C   0  0  0  0  0  0  0  0  0  0  0  0
   41.7150   36.5950   25.9310 O   0  0  0  0  0  0  0  0  0  0  0  0
   41.4420   35.4730   28.0420 C   0  0  0  0  0  0  0  0  0  0  0  0
   40.1210   35.3680   27.2310 C   0  0  0  0  0  0  0  0  0  0  0  0
   41.4100   35.4920   26.5000 C   0  0  0  0  0  0  0  0  0  0  0  0
   39.0610   36.2960   26.4970 C   0  0  0  0  0  0  0  0  0  0  0  0
  1  7  1  0
  3  6  1  0
  5  7  1  0
  5  4  1  0
  6  2  1  0
  6  5  1  0
  6  4  1  0
M  END
$$$$

     RDKit          3D

 15 15  0  0  0  0  0  0  0  0999 V2000
   39.2120   36.9430   29.4950 C   0  0  0  0  0  0  0  0  0  0  0  0
   40.0000   34.5420   29.3040 C   0  0  0  0  0  0  0  0  0  0  0  0
   39.8810   37.2280   27.2010 C   0  0  0  0  0  0  0  0  0  0  0  0
   39.7580   38.2690   26.1060 C   0  0  0  0  0  0  0  0  0  0  0  0
   39.3120   39.3960   26.0300 O   0  0  0  0  0  0  0  0  0  0  0  0
   40.0220   37.6590   28.5800 C   0  0  0  0  0  0  0  0  0  0  0  0
   38.4060   31.5730   30.9150 C   0  0  0  0  0  0  0  0  0  0  0  0
   37.8650   35.1550   30.1300 C   0  0  0  0  0  0  0  0  0  0  0  0
   36.4280   36.1690   30.1220 Cl  0  0  0  0  0  0  0  0  0  0  0  0
   38.6410   32.9150   30.4270 C   0  0  0  0  0  0  0  0  0  0  0  0
   41.0750   34.7710   28.5720 N   0  0  0  0  0  0  0  0  0  0  0  0
   40.4820   37.7360   25.0970 O   0  0  0  0  0  0  0  0  0  0  0  0
   37.6610   33.8680   30.6450 C   0  0  0  0  0  0  0  0  0  0  0  0
   39.7850   33.2450   29.7400 C   0  0  0  0  0  0  0  0  0  0  0  0
   39.0670   35.5680   29.6290 C   0  0  0  0  0  0  0  0  0  0  0  0
  1 15  1  0
  2 15  2  0
  2 14  1  0
  3  6  1  0
  4  3  1  0
  5  4  1  0
  6  1  1  0
  8 13  2  0
  9  8  1  0
 10 13  1  0
 10  7  1  0
 11  2  1  0
 12  4  2  0
 14 10  2  0
 15  8  1  0
M  END
$$$$

     RDKit          3D

 17 18  0  0  0  0  0  0  0  0999 V2000
   37.1100   36.1810   30.2460 C   0  0  0  0  0  0  0  0  0  0  0  0
   43.5460   36.7640   29.2100 C   0  0  0  0  0  0  0  0  0  0  0  0
   36.3140   34.0820   30.4720 O   0  0  0  0  0  0  0  0  0  0  0  0
   41.0210   36.5720   29.1760 O   0  0  0  0  0  0  0  0  0  0  0  0
   37.3100   34.7920   30.4220 C   0  0  0  0  0  0  0  0  0  0  0  0
   44.7600   37.4270   29.5380 N   0  0  0  0  0  0  0  0  0  0  0  0
   38.6950   32.8200   30.7850 C   0  0  0  0  0  0  0  0  0  0  0  0
   40.5110   34.0960   29.5180 O   0  0  0  0  0  0  0  0  0  0  0  0
   42.8820   37.7300   28.6010 C   0  0  0  0  0  0  0  0  0  0  0  0
   41.4240   37.8890   28.7250 C   0  0  0  0  0  0  0  0  0  0  0  0
   37.5790   37.3060   29.8200 C   0  0  0  0  0  0  0  0  0  0  0  0
   43.6980   38.8140   27.9860 C   0  0  0  0  0  0  0  0  0  0  0  0
   38.9390   37.3730   29.9790 C   0  0  0  0  0  0  0  0  0  0  0  0
   38.5120   34.2020   30.4160 N   0  0  0  0  0  0  0  0  0  0  0  0
   45.0550   38.3660   28.4870 C   0  0  0  0  0  0  0  0  0  0  0  0
   39.7390   36.3300   29.5620 C   0  0  0  0  0  0  0  0  0  0  0  0
   39.6020   34.8640   29.8390 C   0  0  0  0  0  0  0  0  0  0  0  0
  1  5  1  0
  2  6  1  0
  5  3  2  0
  8 17  2  0
  9 10  1  0
  9  2  1  0
 10  4  1  0
 11 13  1  0
 11  1  1  0
 12 15  1  0
 12  9  1  0
 14  5  1  0
 14  7  1  0
 15  6  1  0
 16  4  1  0
 16 17  1  0
 16 13  1  0
 17 14  1  0
M  END
$$$$

     RDKit          3D

  9  8  0  0  0  0  0  0  0  0999 V2000
   40.5980   32.3760   29.5780 C   0  0  0  0  0  0  0  0  0  0  0  0
   38.1610   28.9980   31.1690 C   0  0  0  0  0  0  0  0  0  0  0  0
   38.4810   31.2540   30.4300 C   0  0  0  0  0  0  0  0  0  0  0  0
   39.3250   31.9520   29.5970 C   0  0  0  0  0  0  0  0  0  0  0  0
   43.2790   35.1300   28.8220 C   0  0  0  0  0  0  0  0  0  0  0  0
   41.3380   33.3470   28.6110 C   0  0  0  0  0  0  0  0  0  0  0  0
   42.1930   34.2920   29.4680 C   0  0  0  0  0  0  0  0  0  0  0  0
   37.7100   30.0390   29.9560 C   0  0  0  0  0  0  0  0  0  0  0  0
   38.2480   27.7490   32.0430 C   0  0  0  0  0  0  0  0  0  0  0  0
  1  4  2  3
  2  9  1  0
  4  3  1  0
  5  7  1  0
  6  7  1  0
  6  1  1  0
  8  3  1  0
  8  2  1  0
M  END
$$$$

     RDKit          3D

 12 13  0  0  0  0  0  0  0  0999 V2000
   39.0340   36.2660   29.1570 C   0  0  0  0  0  0  0  0  0  0  0  0
   40.9470   34.7250   28.9940 C   0  0  0  0  0  0  0  0  0  0  0  0
   37.7590   35.0590   30.4130 C   0  0  0  0  0  0  0  0  0  0  0  0
   36.9300   36.1160   30.1290 N   0  0  0  0  0  0  0  0  0  0  0  0
   37.7230   36.9440   29.3680 C   0  0  0  0  0  0  0  0  0  0  0  0
   41.6280   36.8310   28.0910 O   0  0  0  0  0  0  0  0  0  0  0  0
   37.3150   34.0390   30.9560 O   0  0  0  0  0  0  0  0  0  0  0  0
   42.2680   34.2030   28.6350 N   0  0  0  0  0  0  0  0  0  0  0  0
   39.9550   34.1920   29.7970 C   0  0  0  0  0  0  0  0  0  0  0  0
   40.4130   36.0040   28.6680 C   0  0  0  0  0  0  0  0  0  0  0  0
   39.0790   38.2570   27.8250 Br  0  0  0  0  0  0  0  0  0  0  0  0
   38.9320   35.1140   29.8640 N   0  0  0  0  0  0  0  0  0  0  0  0
  1  5  1  0
  1 12  1  0
  2  9  2  0
  3  7  2  0
  4  3  1  0
  5  4  2  0
  6 10  1  0
  8  2  1  0
  9 12  1  0
 10  2  1  0
 10  1  2  0
 11  1  1  0
 12  3  1  0
M  END
$$$$

     RDKit          3D

 13 13  0  0  0  0  0  0  0  0999 V2000
   38.7440   35.6190   29.5360 C   0  0  0  0  0  0  0  0  0  0  0  0
   38.6860   34.4280   30.2180 C   0  0  0  0  0  0  0  0  0  0  0  0
   39.9240   35.8580   28.6670 C   0  0  0  0  0  0  0  0  0  0  0  0
   39.5240   33.3670   29.9980 C   0  0  0  0  0  0  0  0  0  0  0  0
   37.7170   36.6740   29.7380 C   0  0  0  0  0  0  0  0  0  0  0  0
   38.0660   34.1270   31.0830 N   0  0  0  0  0  0  0  0  0  0  0  0
   35.8850   35.0150   30.1700 O   0  0  0  0  0  0  0  0  0  0  0  0
   39.4280   32.2390   30.6500 N   0  0  0  0  0  0  0  0  0  0  0  0
   41.4190   32.4560   28.9350 O   0  0  0  0  0  0  0  0  0  0  0  0
   40.9270   34.8550   28.5780 C   0  0  0  0  0  0  0  0  0  0  0  0
   35.4080   37.1670   29.6700 O   0  0  0  0  0  0  0  0  0  0  0  0
   36.2700   36.2200   29.9760 C   0  0  0  0  0  0  0  0  0  0  0  0
   40.6820   33.5400   29.1120 C   0  0  0  0  0  0  0  0  0  0  0  0
  1  5  1  0
  1  2  1  0
  2  6  1  0
  3  1  2  0
  4  2  2  0
  4  8  1  0
  5 12  1  0
  9 13  1  0
 10  3  1  0
 10 13  2  0
 11 12  2  0
 12  7  1  0
 13  4  1  0
M  END
$$$$

     RDKit          3D

 13 13  0  0  0  0  0  0  0  0999 V2000
   39.8340   35.1210   28.5190 N   0  0  0  0  0  0  0  0  0  0  0  0
   41.2800   33.5440   28.0540 O   0  0  0  0  0  0  0  0  0  0  0  0
   40.5020   34.0340   28.8550 C   0  0  0  0  0  0  0  0  0  0  0  0
   41.1480   35.2870   26.2060 O   0  0  0  0  0  0  0  0  0  0  0  0
   39.5550   36.7390   26.8730 C   0  0  0  0  0  0  0  0  0  0  0  0
   40.2350   35.6380   27.2710 C   0  0  0  0  0  0  0  0  0  0  0  0
   38.8040   32.9900   30.0780 C   0  0  0  0  0  0  0  0  0  0  0  0
   40.8000   37.1750   24.7990 O   0  0  0  0  0  0  0  0  0  0  0  0
   38.7540   38.2830   25.5340 N   0  0  0  0  0  0  0  0  0  0  0  0
   38.0780   38.3380   26.7230 C   0  0  0  0  0  0  0  0  0  0  0  0
   38.7570   37.4940   27.6300 C   0  0  0  0  0  0  0  0  0  0  0  0
   39.5010   37.2120   25.6320 C   0  0  0  0  0  0  0  0  0  0  0  0
   40.1630   33.4390   30.0200 O   0  0  0  0  0  0  0  0  0  0  0  0
  1  3  1  0
  2  3  2  0
  3 13  1  0
  4  6  2  0
  5  6  1  0
  5 11  1  0
  6  1  1  0
  8 12  2  0
  9 12  1  0
  9 10  1  0
 10 11  1  0
 12  5  1  0
 13  7  1  0
M  END
$$$$

     RDKit          3D

 13 14  0  0  0  0  0  0  0  0999 V2000
   37.3120   35.0320   30.2360 C   0  0  0  0  0  0  0  0  0  0  0  0
   34.1350   36.0280   30.4310 C   0  0  0  0  0  0  0  0  0  0  0  0
   39.8580   34.9430   29.0920 C   0  0  0  0  0  0  0  0  0  0  0  0
   37.9630   33.7230   30.0860 C   0  0  0  0  0  0  0  0  0  0  0  0
   41.8150   34.2760   27.9110 O   0  0  0  0  0  0  0  0  0  0  0  0
   36.2750   35.1930   31.0990 O   0  0  0  0  0  0  0  0  0  0  0  0
   39.1900   36.2550   29.2470 C   0  0  0  0  0  0  0  0  0  0  0  0
   40.0560   37.3120   28.7290 C   0  0  0  0  0  0  0  0  0  0  0  0
   41.1440   35.2310   28.5570 N   0  0  0  0  0  0  0  0  0  0  0  0
   39.2750   33.7010   29.5180 C   0  0  0  0  0  0  0  0  0  0  0  0
   37.9420   36.2980   29.8160 C   0  0  0  0  0  0  0  0  0  0  0  0
   41.4310   36.6730   28.5490 C   0  0  0  0  0  0  0  0  0  0  0  0
   34.9730   34.9170   31.0260 C   0  0  0  0  0  0  0  0  0  0  0  0
  1  6  1  0
  2 13  1  0
  3  7  2  0
  3 10  1  0
  4  1  1  0
  5  9  1  0
  7 11  1  0
  8  7  1  0
  9  3  1  0
 10  4  2  0
 11  1  2  0
 12  9  1  0
 12  8  1  0
 13  6  1  0
M  END
$$$$

     RDKit          3D

 28 30  0  0  0  0  0  0  0  0999 V2000
   37.3220   33.2610   31.5660 C   0  0  0  0  0  0  0  0  0  0  0  0
   40.0750   35.6660   28.1720 C   0  0  0  0  0  0  0  0  0  0  0  0
   35.1880   33.1600   32.5950 C   0  0  0  0  0  0  0  0  0  0  0  0
   38.3520   34.0100   31.0260 O   0  0  0  0  0  0  0  0  0  0  0  0
   39.6060   37.9120   23.8280 C   0  0  0  0  0  0  0  0  0  0  0  0
   39.9430   37.0510   26.2090 C   0  0  0  0  0  0  0  0  0  0  0  0
   41.4640   37.8570   22.1160 C   0  0  0  0  0  0  0  0  0  0  0  0
   38.2350   38.5100   25.6010 O   0  0  0  0  0  0  0  0  0  0  0  0
   39.2810   37.9420   25.3020 C   0  0  0  0  0  0  0  0  0  0  0  0
   37.6600   36.2260   30.3190 C   0  0  0  0  0  0  0  0  0  0  0  0
   36.6360   29.6420   34.6660 C   0  0  0  0  0  0  0  0  0  0  0  0
   35.8230   30.0360   35.5130 O   0  0  0  0  0  0  0  0  0  0  0  0
   37.1240   28.4330   34.8770 N   0  0  0  0  0  0  0  0  0  0  0  0
   35.4300   31.8870   33.0270 C   0  0  0  0  0  0  0  0  0  0  0  0
   41.9030   35.6840   26.5880 C   0  0  0  0  0  0  0  0  0  0  0  0
   37.2450   30.3690   33.6470 N   0  0  0  0  0  0  0  0  0  0  0  0
   41.1190   37.9050   23.6030 C   0  0  0  0  0  0  0  0  0  0  0  0
   39.3960   36.6020   27.4150 C   0  0  0  0  0  0  0  0  0  0  0  0
   38.8770   31.0570   31.3710 Cl  0  0  0  0  0  0  0  0  0  0  0  0
   41.8490   36.9250   24.4780 C   0  0  0  0  0  0  0  0  0  0  0  0
   41.2900   35.1980   27.7110 C   0  0  0  0  0  0  0  0  0  0  0  0
   40.4410   38.3040   21.3530 O   0  0  0  0  0  0  0  0  0  0  0  0
   41.1760   36.5970   25.7810 C   0  0  0  0  0  0  0  0  0  0  0  0
   36.1440   33.8630   31.8860 C   0  0  0  0  0  0  0  0  0  0  0  0
   38.8300   35.3000   30.5520 C   0  0  0  0  0  0  0  0  0  0  0  0
   39.6510   34.9180   29.3770 C   0  0  0  0  0  0  0  0  0  0  0  0
   36.7200   31.3190   32.8000 C   0  0  0  0  0  0  0  0  0  0  0  0
   37.4670   31.9370   31.8190 C   0  0  0  0  0  0  0  0  0  0  0  0
  1 28  2  0
  1 24  1  0
  2 26  1  0
  3 14  1  0
  4  1  1  0
  5  9  1  0
  6 18  1  0
  9  8  2  0
  9  6  1  0
 11 13  1  0
 11 12  2  0
 15 21  2  0
 16 11  1  0
 17  7  1  0
 17  5  1  0
 17 20  1  0
 18  2  2  0
 19 28  1  0
 20 23  1  0
 21  2  1  0
 22  7  1  0
 23  6  2  0
 23 15  1  0
 24  3  2  0
 25 10  1  0
 25  4  1  0
 26 25  1  0
 27 14  2  0
 27 16  1  0
 28 27  1  0
M  END
$$$$

     RDKit          3D

  1  0  0  0  0  0  0  0  0  0999 V2000
  -34.1120 -109.5370  105.5940 O   0  0  0  0  0  0  0  0  0  0  0  0
M  END
$$$$

     RDKit          3D

 17 18  0  0  0  0  0  0  0  0999 V2000
   38.7960   34.8340   29.2350 C   0  0  0  0  0  0  0  0  0  0  0  0
   38.6330   37.2370   28.8450 C   0  0  0  0  0  0  0  0  0  0  0  0
   35.5490   34.9330   29.7910 C   0  0  0  0  0  0  0  0  0  0  0  0
   32.7180   33.4090   31.6510 N   0  0  0  0  0  0  0  0  0  0  0  0
   37.0780   33.1910   29.8230 C   0  0  0  0  0  0  0  0  0  0  0  0
   38.0590   36.0680   29.2530 C   0  0  0  0  0  0  0  0  0  0  0  0
   34.1550   33.5200   31.3180 C   0  0  0  0  0  0  0  0  0  0  0  0
   40.5920   36.1380   28.2890 C   0  0  0  0  0  0  0  0  0  0  0  0
   36.3060   34.7450   31.5080 C   0  0  0  0  0  0  0  0  0  0  0  0
   35.1350   34.2630   32.2140 C   0  0  0  0  0  0  0  0  0  0  0  0
   39.8280   37.2390   28.2140 N   0  0  0  0  0  0  0  0  0  0  0  0
   33.6380   33.5080   29.0220 O   0  0  0  0  0  0  0  0  0  0  0  0
   35.3890   36.1530   29.2280 O   0  0  0  0  0  0  0  0  0  0  0  0
   40.1170   34.9750   28.8770 C   0  0  0  0  0  0  0  0  0  0  0  0
   36.4620   34.4990   30.2670 C   0  0  0  0  0  0  0  0  0  0  0  0
   34.2260   34.3000   30.0350 C   0  0  0  0  0  0  0  0  0  0  0  0
   38.5020   33.4750   29.3810 C   0  0  0  0  0  0  0  0  0  0  0  0
  1  6  1  0
  1 17  1  0
  2  6  2  0
  3 13  1  0
  3 16  1  0
  3 15  1  0
  7  4  1  0
  7 10  1  0
  8 14  1  0
  9 10  1  0
 11  8  2  0
 11  2  1  0
 14  1  2  0
 15  5  1  0
 15  9  1  0
 16 12  1  0
 16  7  1  0
 17  5  1  0
M  END
$$$$

     RDKit          3D

 13 13  0  0  0  0  0  0  0  0999 V2000
   36.4490   34.0440   30.6890 C   0  0  0  0  0  0  0  0  0  0  0  0
   36.6000   36.9440   29.9580 O   0  0  0  0  0  0  0  0  0  0  0  0
   34.8260   35.0790   32.0010 C   0  0  0  0  0  0  0  0  0  0  0  0
   34.3060   36.4770   31.9170 C   0  0  0  0  0  0  0  0  0  0  0  0
   40.1750   33.3940   29.6210 O   0  0  0  0  0  0  0  0  0  0  0  0
   36.9600   32.3560   31.0230 C   0  0  0  0  0  0  0  0  0  0  0  0
   35.7560   35.0620   30.9080 C   0  0  0  0  0  0  0  0  0  0  0  0
   37.9060   34.0640   30.1670 C   0  0  0  0  0  0  0  0  0  0  0  0
   35.6310   36.1470   30.1770 C   0  0  0  0  0  0  0  0  0  0  0  0
   37.3690   31.3370   31.1550 N   0  0  0  0  0  0  0  0  0  0  0  0
   34.3470   36.6310   30.4880 O   0  0  0  0  0  0  0  0  0  0  0  0
   38.8510   32.8770   29.9360 C   0  0  0  0  0  0  0  0  0  0  0  0
   35.9780   32.8550   31.1210 N   0  0  0  0  0  0  0  0  0  0  0  0
  1 13  1  0
  2  9  2  0
  4  3  1  0
  5 12  1  0
  6 13  1  0
  6 10  2  0
  7  1  1  0
  7  3  1  0
  8  1  2  3
  9 11  1  0
  9  7  1  0
 11  4  1  0
 12  8  1  0
M  END
$$$$

     RDKit          3D

  3  2  0  0  0  0  0  0  0  0999 V2000
   40.8770   30.5850   21.7560 Cl  0  0  0  0  0  0  0  0  0  0  0  0
   41.9060   31.1630   23.0510 C   0  0  0  0  0  0  0  0  0  0  0  0
   41.9170   32.9190   23.2580 C   0  0  0  0  0  0  0  0  0  0  0  0
  1  2  1  0
  2  3  1  0
M  END
$$$$

     RDKit          3D

 13 14  0  0  0  0  0  0  0  0999 V2000
   40.5910   35.2100   27.8870 C   0  0  0  0  0  0  0  0  0  0  0  0
   40.1390   36.3850   27.3320 C   0  0  0  0  0  0  0  0  0  0  0  0
   38.1000   36.2780   28.6770 C   0  0  0  0  0  0  0  0  0  0  0  0
   34.1500   34.6560   31.8730 C   0  0  0  0  0  0  0  0  0  0  0  0
   38.1170   34.7420   30.5510 N   0  0  0  0  0  0  0  0  0  0  0  0
   34.5010   34.1680   30.5760 C   0  0  0  0  0  0  0  0  0  0  0  0
   38.6490   35.1820   29.3530 C   0  0  0  0  0  0  0  0  0  0  0  0
   36.4110   35.6460   32.1180 C   0  0  0  0  0  0  0  0  0  0  0  0
   35.6900   34.6520   29.9470 C   0  0  0  0  0  0  0  0  0  0  0  0
   34.9160   35.6200   32.5320 C   0  0  0  0  0  0  0  0  0  0  0  0
   39.8350   34.6780   28.8980 N   0  0  0  0  0  0  0  0  0  0  0  0
   36.7610   34.9530   30.8940 C   0  0  0  0  0  0  0  0  0  0  0  0
   38.8570   36.8780   27.6320 C   0  0  0  0  0  0  0  0  0  0  0  0
  1 11  1  0
  2 13  1  0
  2  1  2  0
  3  7  1  0
  4 10  1  0
  6  4  2  0
  7  5  1  0
  8 10  1  0
  9  6  1  0
  9 12  1  0
 11  7  2  0
 12  5  1  0
 12  8  1  0
 13  3  2  0
M  END
$$$$

     RDKit          3D

 12 12  0  0  0  0  0  0  0  0999 V2000
   35.3840   34.5940   32.2860 O   0  0  0  0  0  0  0  0  0  0  0  0
   40.6390   35.1300   28.9650 O   0  0  0  0  0  0  0  0  0  0  0  0
   36.9470   36.7480   29.7930 N   0  0  0  0  0  0  0  0  0  0  0  0
   38.2340   34.6810   29.8510 C   0  0  0  0  0  0  0  0  0  0  0  0
   34.4550   35.7770   32.2830 C   0  0  0  0  0  0  0  0  0  0  0  0
   37.0380   35.5180   30.4220 C   0  0  0  0  0  0  0  0  0  0  0  0
   36.4670   34.6710   31.3860 C   0  0  0  0  0  0  0  0  0  0  0  0
   37.3050   33.4410   31.5590 C   0  0  0  0  0  0  0  0  0  0  0  0
   38.8280   35.8200   27.2760 O   0  0  0  0  0  0  0  0  0  0  0  0
   39.3430   34.8260   28.4220 S   0  0  0  0  0  0  0  0  0  0  0  0
   38.4480   33.5750   30.6810 C   0  0  0  0  0  0  0  0  0  0  0  0
   39.5640   33.5000   27.9390 O   0  0  0  0  0  0  0  0  0  0  0  0
  3  6  1  0
  4 10  1  0
  4  6  1  0
  4 11  1  0
  5  1  1  0
  6  7  2  0
  7  8  1  0
  7  1  1  0
  9 10  1  0
 10  2  1  0
 11  8  1  0
 12 10  1  0
M  END
$$$$

     RDKit          3D

 25 26  0  0  0  0  0  0  0  0999 V2000
   36.9120   34.8950   32.5820 C   0  0  0  0  0  0  0  0  0  0  0  0
   41.7450   36.9430   29.1910 O   0  0  0  0  0  0  0  0  0  0  0  0
   40.5570   35.9300   31.3840 C   0  0  0  0  0  0  0  0  0  0  0  0
   39.0330   34.2010   31.5770 C   0  0  0  0  0  0  0  0  0  0  0  0
   41.3830   34.6770   28.3400 C   0  0  0  0  0  0  0  0  0  0  0  0
   42.0050   36.6400   26.9010 C   0  0  0  0  0  0  0  0  0  0  0  0
   42.4940   33.8980   27.6460 C   0  0  0  0  0  0  0  0  0  0  0  0
   41.1640   36.1650   28.1060 C   0  0  0  0  0  0  0  0  0  0  0  0
   36.3000   33.6150   32.2040 C   0  0  0  0  0  0  0  0  0  0  0  0
   43.4100   36.0190   26.8050 C   0  0  0  0  0  0  0  0  0  0  0  0
   40.4770   33.7640   28.8560 O   0  0  0  0  0  0  0  0  0  0  0  0
   37.5810   32.9320   31.7930 N   0  0  0  0  0  0  0  0  0  0  0  0
   34.3290   35.2160   32.5980 C   0  0  0  0  0  0  0  0  0  0  0  0
   40.0450   34.7480   30.9520 C   0  0  0  0  0  0  0  0  0  0  0  0
   39.6580   36.5500   28.0850 C   0  0  0  0  0  0  0  0  0  0  0  0
   41.3370   37.6290   25.7250 Cl  0  0  0  0  0  0  0  0  0  0  0  0
   42.7180   36.9610   31.3500 C   0  0  0  0  0  0  0  0  0  0  0  0
   42.6610   38.2950   31.9190 N   0  0  0  0  0  0  0  0  0  0  0  0
   39.1240   37.3340   27.0110 O   0  0  0  0  0  0  0  0  0  0  0  0
   41.5360   36.5040   30.5370 C   0  0  0  0  0  0  0  0  0  0  0  0
   40.1010   36.4530   32.6010 C   0  0  0  0  0  0  0  0  0  0  0  0
   38.3910   34.7840   32.6620 C   0  0  0  0  0  0  0  0  0  0  0  0
   43.0760   34.6200   26.4690 C   0  0  0  0  0  0  0  0  0  0  0  0
   39.1270   35.8480   33.3250 C   0  0  0  0  0  0  0  0  0  0  0  0
   34.9150   34.0330   32.1020 O   0  0  0  0  0  0  0  0  0  0  0  0
  1 22  1  0
  2 20  1  0
  3 21  1  0
  4 22  2  0
  5 11  1  0
  6 16  1  0
  6  8  1  0
  7  5  1  0
  8 15  1  0
  8  5  1  0
  8  2  1  0
  9 12  1  0
  9  1  1  0
 10  6  1  0
 14  3  2  0
 14  4  1  0
 17 18  1  0
 19 15  1  0
 20 17  1  0
 20  3  1  0
 21 24  2  0
 22 24  1  0
 23 10  1  0
 23  7  1  0
 25  9  1  0
 25 13  1  0
M  END
$$$$

     RDKit          3D

 14 15  0  0  0  0  0  0  0  0999 V2000
   33.7100   34.9920   30.8510 C   0  0  0  0  0  0  0  0  0  0  0  0
   35.0730   34.9040   31.1470 C   0  0  0  0  0  0  0  0  0  0  0  0
   37.1900   34.7450   29.9360 C   0  0  0  0  0  0  0  0  0  0  0  0
   39.8880   33.5890   29.7380 C   0  0  0  0  0  0  0  0  0  0  0  0
   35.4260   34.3540   32.3520 O   0  0  0  0  0  0  0  0  0  0  0  0
   35.9970   35.1650   30.1600 N   0  0  0  0  0  0  0  0  0  0  0  0
   41.0460   34.3570   28.9060 C   0  0  0  0  0  0  0  0  0  0  0  0
   37.8470   33.7480   30.5740 C   0  0  0  0  0  0  0  0  0  0  0  0
   40.1290   32.5750   30.0620 O   0  0  0  0  0  0  0  0  0  0  0  0
   35.6480   36.0410   29.1010 C   0  0  0  0  0  0  0  0  0  0  0  0
   33.3640   35.4820   29.5740 C   0  0  0  0  0  0  0  0  0  0  0  0
   39.1750   36.0570   29.6560 O   0  0  0  0  0  0  0  0  0  0  0  0
   34.3130   36.0690   28.7990 C   0  0  0  0  0  0  0  0  0  0  0  0
   38.8690   34.8620   30.0290 C   0  0  0  0  0  0  0  0  0  0  0  0
  1  2  1  0
  2  5  2  0
  3 14  1  0
  3  6  1  0
  3  8  1  0
  4 14  1  0
  4  9  2  0
  6  2  1  0
  7  4  1  0
 10  6  1  0
 11  1  1  0
 13 10  1  0
 13 11  2  0
 14 12  1  0
 14  8  1  0
M  END
$$$$
