
     RDKit          3D

  1  0  0  0  0  0  0  0  0  0999 V2000
   28.8060  115.2540    6.8620 C   0  0  0  0  0  0  0  0  0  0  0  0
M  END
$$$$

     RDKit          3D

  8  7  0  0  0  0  0  0  0  0999 V2000
   38.3200   40.4540   27.5330 O   0  0  0  0  0  0  0  0  0  0  0  0
   36.9610   40.8460   26.8040 S   0  0  0  0  0  0  0  0  0  0  0  0
   36.6910   43.1480   27.5350 C   0  0  0  0  0  0  0  0  0  0  0  0
   36.1230   39.5170   26.6770 O   0  0  0  0  0  0  0  0  0  0  0  0
   36.4320   41.8710   28.1810 C   0  0  0  0  0  0  0  0  0  0  0  0
   35.3880   43.4110   26.5010 C   0  0  0  0  0  0  0  0  0  0  0  0
   35.0060   41.7240   28.7320 C   0  0  0  0  0  0  0  0  0  0  0  0
   37.0830   41.4800   25.5110 O   0  0  0  0  0  0  0  0  0  0  0  0
  2  1  1  0
  2  5  1  0
  3  5  1  0
  4  2  1  0
  5  7  1  0
  6  3  1  0
  8  2  1  0
M  END
$$$$

     RDKit          3D

 21 22  0  0  0  0  0  0  0  0999 V2000
   37.2030   40.2100   28.9270 N   0  0  0  0  0  0  0  0  0  0  0  0
   36.7940   41.5150   28.4080 C   0  0  0  0  0  0  0  0  0  0  0  0
   32.3200   35.8600   30.7140 C   0  0  0  0  0  0  0  0  0  0  0  0
   34.1910   33.5260   32.0450 C   0  0  0  0  0  0  0  0  0  0  0  0
   33.6840   35.9130   31.1580 C   0  0  0  0  0  0  0  0  0  0  0  0
   33.0820   33.0370   32.3750 C   0  0  0  0  0  0  0  0  0  0  0  0
   32.4510   32.7670   33.5260 N   0  0  0  0  0  0  0  0  0  0  0  0
   32.1890   37.1670   30.0160 C   0  0  0  0  0  0  0  0  0  0  0  0
   36.5660   38.5710   30.4820 C   0  0  0  0  0  0  0  0  0  0  0  0
   34.4910   36.9180   30.4800 C   0  0  0  0  0  0  0  0  0  0  0  0
   33.5670   42.8940   27.5910 C   0  0  0  0  0  0  0  0  0  0  0  0
   34.2050   35.0580   32.1180 C   0  0  0  0  0  0  0  0  0  0  0  0
   37.9670   39.2190   28.2290 C   0  0  0  0  0  0  0  0  0  0  0  0
   35.4280   34.5900   32.2370 O   0  0  0  0  0  0  0  0  0  0  0  0
   39.3500   39.6630   28.0170 C   0  0  0  0  0  0  0  0  0  0  0  0
   35.4480   41.9430   28.9840 C   0  0  0  0  0  0  0  0  0  0  0  0
   35.8890   37.2550   30.9020 C   0  0  0  0  0  0  0  0  0  0  0  0
   33.6140   37.7050   29.7090 C   0  0  0  0  0  0  0  0  0  0  0  0
   35.9700   37.2940   32.3110 O   0  0  0  0  0  0  0  0  0  0  0  0
   36.0700   39.4410   29.3740 C   0  0  0  0  0  0  0  0  0  0  0  0
   34.8840   43.1640   28.2830 C   0  0  0  0  0  0  0  0  0  0  0  0
  1 20  1  0
  2  1  1  0
  2 16  1  0
  3  5  1  0
  4 12  1  0
  4 14  1  0
  4  6  1  0
  6  7  1  0
  8  3  1  0
  9 17  1  0
 10 17  1  0
 10  5  2  0
 11 21  1  0
 12  5  1  0
 12 14  1  0
 13  1  1  0
 15 13  1  0
 17 19  1  0
 18  8  1  0
 18 10  1  0
 20  9  1  0
 21 16  1  0
M  END
$$$$

     RDKit          3D

 12 11  0  0  0  0  0  0  0  0999 V2000
   36.5050   40.0450   28.0570 C   0  0  0  0  0  0  0  0  0  0  0  0
   36.0230   42.8400   27.1680 O   0  0  0  0  0  0  0  0  0  0  0  0
   38.9840   42.5810   27.4230 O   0  0  0  0  0  0  0  0  0  0  0  0
   34.8400   39.5600   29.4900 O   0  0  0  0  0  0  0  0  0  0  0  0
   37.6890   40.6770   27.6340 C   0  0  0  0  0  0  0  0  0  0  0  0
   37.8980   42.0530   27.9350 C   0  0  0  0  0  0  0  0  0  0  0  0
   35.6560   38.5790   29.3560 C   0  0  0  0  0  0  0  0  0  0  0  0
   36.8170   43.1160   28.0410 C   0  0  0  0  0  0  0  0  0  0  0  0
   38.3140   40.0320   26.7800 O   0  0  0  0  0  0  0  0  0  0  0  0
   35.2300   37.3300   29.9640 C   0  0  0  0  0  0  0  0  0  0  0  0
   35.2040   40.8160   30.0170 C   0  0  0  0  0  0  0  0  0  0  0  0
   36.7440   38.8100   28.7140 O   0  0  0  0  0  0  0  0  0  0  0  0
  1 12  1  0
  2  8  1  0
  4 11  1  0
  5  6  1  0
  5  1  1  0
  6  3  1  0
  6  8  1  0
  7  4  1  0
  7 10  1  0
  9  5  2  0
 12  7  1  0
M  END
$$$$

     RDKit          3D

 12 14  0  0  0  0  0  0  0  0999 V2000
   37.5600   41.7540   27.0770 S   0  0  0  0  0  0  0  0  0  0  0  0
   34.7300   44.3680   26.7680 C   0  0  0  0  0  0  0  0  0  0  0  0
   35.2200   40.6240   27.0550 O   0  0  0  0  0  0  0  0  0  0  0  0
   34.9810   42.0010   27.3690 C   0  0  0  0  0  0  0  0  0  0  0  0
   36.2550   42.6690   27.0390 C   0  0  0  0  0  0  0  0  0  0  0  0
   33.9790   43.1550   27.2520 C   0  0  0  0  0  0  0  0  0  0  0  0
   36.4110   45.4910   27.6300 C   0  0  0  0  0  0  0  0  0  0  0  0
   37.6420   41.1340   25.9570 O   0  0  0  0  0  0  0  0  0  0  0  0
   36.2370   44.1740   26.8730 C   0  0  0  0  0  0  0  0  0  0  0  0
   38.6640   42.3010   26.6330 O   0  0  0  0  0  0  0  0  0  0  0  0
   37.6420   41.0920   28.5330 C   0  0  0  0  0  0  0  0  0  0  0  0
   33.5740   43.8110   26.2120 O   0  0  0  0  0  0  0  0  0  0  0  0
  1 11  1  0
  2 12  1  0
  2  9  1  0
  2  6  1  0
  4  3  1  0
  5  1  1  0
  5  4  1  0
  6 12  1  0
  6  4  1  0
  8 10  1  0
  8  1  1  0
  9  5  1  0
  9  7  1  0
 10  1  1  0
M  END
$$$$

     RDKit          3D

 21 20  0  0  0  0  0  0  0  0999 V2000
   34.1800   36.4520   31.0180 C   0  0  0  0  0  0  0  0  0  0  0  0
   37.0650   33.8560   31.8580 N   0  0  0  0  0  0  0  0  0  0  0  0
   38.3330   40.9970   25.9870 C   0  0  0  0  0  0  0  0  0  0  0  0
   38.3680   42.8270   24.3620 C   0  0  0  0  0  0  0  0  0  0  0  0
   34.6950   33.6950   31.7660 C   0  0  0  0  0  0  0  0  0  0  0  0
   37.0410   43.4870   26.3370 C   0  0  0  0  0  0  0  0  0  0  0  0
   33.2350   35.9200   31.2860 O   0  0  0  0  0  0  0  0  0  0  0  0
   35.4610   36.7250   30.3460 C   0  0  0  0  0  0  0  0  0  0  0  0
   35.0860   32.3480   31.7600 N   0  0  0  0  0  0  0  0  0  0  0  0
   35.7100   38.1440   30.3110 O   0  0  0  0  0  0  0  0  0  0  0  0
   35.8880   34.6660   31.7470 C   0  0  0  0  0  0  0  0  0  0  0  0
   34.7580   41.6140   28.0750 O   0  0  0  0  0  0  0  0  0  0  0  0
   36.5260   35.9380   31.0910 C   0  0  0  0  0  0  0  0  0  0  0  0
   36.9580   40.5910   28.0880 C   0  0  0  0  0  0  0  0  0  0  0  0
   33.4180   33.7310   31.8630 O   0  0  0  0  0  0  0  0  0  0  0  0
   38.1610   42.5420   25.8480 C   0  0  0  0  0  0  0  0  0  0  0  0
   35.4230   44.1120   27.9510 C   0  0  0  0  0  0  0  0  0  0  0  0
   36.8320   38.4630   29.4230 C   0  0  0  0  0  0  0  0  0  0  0  0
   35.9640   41.7690   27.8660 C   0  0  0  0  0  0  0  0  0  0  0  0
   36.5590   39.8850   29.1880 C   0  0  0  0  0  0  0  0  0  0  0  0
   36.3890   43.0510   27.6150 N   0  0  0  0  0  0  0  0  0  0  0  0
  1  7  1  0
  4 16  1  0
  5 15  2  0
  6 21  1  0
  8  1  1  0
  8 13  1  0
  9  5  1  0
 10  8  1  0
 11  5  1  0
 11  2  1  0
 13 11  1  0
 14 20  1  0
 16  3  1  0
 16  6  1  0
 18 10  1  0
 19 12  2  0
 19 14  1  0
 20 18  1  0
 21 19  1  0
 21 17  1  0
M  END
$$$$

     RDKit          3D

  7  6  0  0  0  0  0  0  0  0999 V2000
   37.6390   40.3640   25.8580 O   0  0  0  0  0  0  0  0  0  0  0  0
   35.3270   41.7710   26.7580 C   0  0  0  0  0  0  0  0  0  0  0  0
   36.6670   42.4470   26.6600 C   0  0  0  0  0  0  0  0  0  0  0  0
   37.8680   41.5330   26.6100 C   0  0  0  0  0  0  0  0  0  0  0  0
   36.6640   43.6230   25.8800 C   0  0  0  0  0  0  0  0  0  0  0  0
   35.2050   40.5740   27.1430 O   0  0  0  0  0  0  0  0  0  0  0  0
   39.0370   42.1120   26.2460 O   0  0  0  0  0  0  0  0  0  0  0  0
  1  4  1  0
  2  6  2  0
  3  5  1  0
  3  2  1  0
  4  3  1  0
  7  4  1  0
M  END
$$$$

     RDKit          3D

 12 12  0  0  0  0  0  0  0  0999 V2000
   38.5730   42.3900   29.9890 O   0  0  0  0  0  0  0  0  0  0  0  0
   36.4310   40.5730   25.1540 C   0  0  0  0  0  0  0  0  0  0  0  0
   36.9340   42.3170   28.2710 C   0  0  0  0  0  0  0  0  0  0  0  0
   32.9790   42.6340   27.0400 O   0  0  0  0  0  0  0  0  0  0  0  0
   35.5720   42.5150   28.0150 C   0  0  0  0  0  0  0  0  0  0  0  0
   33.8450   41.9010   26.2050 C   0  0  0  0  0  0  0  0  0  0  0  0
   36.3370   41.1420   26.4280 C   0  0  0  0  0  0  0  0  0  0  0  0
   36.5100   42.6430   30.5230 O   0  0  0  0  0  0  0  0  0  0  0  0
   38.8310   40.8110   27.2190 C   0  0  0  0  0  0  0  0  0  0  0  0
   37.4270   41.3260   27.3690 C   0  0  0  0  0  0  0  0  0  0  0  0
   35.1840   41.7310   26.9200 C   0  0  0  0  0  0  0  0  0  0  0  0
   37.3790   42.4850   29.6530 C   0  0  0  0  0  0  0  0  0  0  0  0
  2  7  1  0
  3 12  1  0
  5  3  1  0
  6 11  1  0
  6  4  1  0
  7 11  2  0
  7 10  1  0
 10  9  1  0
 10  3  1  0
 11  5  1  0
 12  1  2  0
 12  8  1  0
M  END
$$$$

     RDKit          3D

 18 18  0  0  0  0  0  0  0  0999 V2000
   36.1430   43.4040   29.2250 O   0  0  0  0  0  0  0  0  0  0  0  0
   38.9640   41.7230   27.6760 C   0  0  0  0  0  0  0  0  0  0  0  0
   37.2070   39.2220   28.7190 C   0  0  0  0  0  0  0  0  0  0  0  0
   37.5260   36.6560   31.9090 C   0  0  0  0  0  0  0  0  0  0  0  0
   37.5730   35.3300   32.3140 C   0  0  0  0  0  0  0  0  0  0  0  0
   38.0950   38.7330   27.9250 O   0  0  0  0  0  0  0  0  0  0  0  0
   37.1570   40.6730   29.0920 C   0  0  0  0  0  0  0  0  0  0  0  0
   36.1950   38.4200   30.7990 C   0  0  0  0  0  0  0  0  0  0  0  0
   36.2340   38.3970   29.4330 C   0  0  0  0  0  0  0  0  0  0  0  0
   36.4320   34.6030   32.5170 C   0  0  0  0  0  0  0  0  0  0  0  0
   34.8080   41.2280   29.5290 O   0  0  0  0  0  0  0  0  0  0  0  0
   35.8590   40.7940   29.7630 C   0  0  0  0  0  0  0  0  0  0  0  0
   35.1940   35.1360   32.1890 C   0  0  0  0  0  0  0  0  0  0  0  0
   37.4760   41.7070   27.9850 C   0  0  0  0  0  0  0  0  0  0  0  0
   36.2940   37.1540   31.4910 C   0  0  0  0  0  0  0  0  0  0  0  0
   37.2530   43.0970   28.5470 C   0  0  0  0  0  0  0  0  0  0  0  0
   36.5130   33.0260   33.2660 Cl  0  0  0  0  0  0  0  0  0  0  0  0
   35.1340   36.4200   31.6890 C   0  0  0  0  0  0  0  0  0  0  0  0
  3  6  1  0
  3  7  1  0
  3  9  1  0
  4  5  1  0
  5 10  2  0
  7 12  1  0
  8 15  1  0
  9  8  1  0
 10 17  1  0
 11 12  2  0
 13 10  1  0
 14  2  1  0
 14 16  1  0
 14  7  1  0
 15 18  1  0
 15  4  2  0
 16  1  1  0
 18 13  2  0
M  END
$$$$

     RDKit          3D

 17 18  0  0  0  0  0  0  0  0999 V2000
   35.4490   36.5690   30.2510 C   0  0  0  0  0  0  0  0  0  0  0  0
   34.4750   37.1720   30.7290 C   0  0  0  0  0  0  0  0  0  0  0  0
   35.2190   39.0510   29.4670 C   0  0  0  0  0  0  0  0  0  0  0  0
   36.8640   41.0290   27.6600 C   0  0  0  0  0  0  0  0  0  0  0  0
   33.7070   31.9530   33.7790 C   0  0  0  0  0  0  0  0  0  0  0  0
   36.3860   38.3800   29.0570 C   0  0  0  0  0  0  0  0  0  0  0  0
   34.0840   35.1370   31.8770 C   0  0  0  0  0  0  0  0  0  0  0  0
   37.6050   39.9720   27.5100 C   0  0  0  0  0  0  0  0  0  0  0  0
   34.3320   38.4040   30.2770 C   0  0  0  0  0  0  0  0  0  0  0  0
   37.5270   38.8090   28.2900 C   0  0  0  0  0  0  0  0  0  0  0  0
   34.8180   40.3850   29.0160 C   0  0  0  0  0  0  0  0  0  0  0  0
   33.1750   33.1460   32.9930 C   0  0  0  0  0  0  0  0  0  0  0  0
   35.5000   41.2190   28.1010 C   0  0  0  0  0  0  0  0  0  0  0  0
   37.0680   42.0210   26.4990 C   0  0  0  0  0  0  0  0  0  0  0  0
   36.4830   37.0350   29.4590 C   0  0  0  0  0  0  0  0  0  0  0  0
   34.2310   34.2630   33.0060 C   0  0  0  0  0  0  0  0  0  0  0  0
   33.7730   36.3340   31.4810 C   0  0  0  0  0  0  0  0  0  0  0  0
  1  2  1  0
  2 17  1  0
  3  9  1  0
  4 13  2  0
  6 10  1  0
  6 15  1  0
  6  3  1  0
  7 16  1  0
  8  4  1  0
  8 10  2  0
  9  2  2  0
 11  3  2  0
 12 16  1  0
 12  5  1  0
 13 11  1  0
 14  4  1  0
 15  1  2  0
 17  7  1  0
M  END
$$$$

     RDKit          3D

  7  6  0  0  0  0  0  0  0  0999 V2000
   37.1350   39.3800   27.1590 C   0  0  0  0  0  0  0  0  0  0  0  0
   36.0500   41.6640   27.2650 C   0  0  0  0  0  0  0  0  0  0  0  0
   37.1130   42.7070   27.2870 C   0  0  0  0  0  0  0  0  0  0  0  0
   34.7940   41.9030   27.0060 N   0  0  0  0  0  0  0  0  0  0  0  0
   38.4280   42.0600   27.0740 C   0  0  0  0  0  0  0  0  0  0  0  0
   36.3500   40.4450   27.6700 N   0  0  0  0  0  0  0  0  0  0  0  0
   39.7210   42.3730   27.7760 C   0  0  0  0  0  0  0  0  0  0  0  0
  1  6  1  0
  2  3  1  0
  2  6  1  0
  4  2  2  0
  5  3  1  0
  5  7  1  0
M  END
$$$$

     RDKit          3D

 21 22  0  0  0  0  0  0  0  0999 V2000
   38.1960   40.8180   27.8430 O   0  0  0  0  0  0  0  0  0  0  0  0
   39.0040   39.4160   30.1070 N   0  0  0  0  0  0  0  0  0  0  0  0
   35.7970   35.2770   31.6770 C   0  0  0  0  0  0  0  0  0  0  0  0
   37.8660   35.4780   32.6350 C   0  0  0  0  0  0  0  0  0  0  0  0
   34.4780   35.6000   32.0090 C   0  0  0  0  0  0  0  0  0  0  0  0
   39.5100   36.9190   32.9150 O   0  0  0  0  0  0  0  0  0  0  0  0
   38.2780   38.8280   29.2070 C   0  0  0  0  0  0  0  0  0  0  0  0
   32.7280   35.2800   32.5500 C   0  0  0  0  0  0  0  0  0  0  0  0
   38.6550   36.6350   32.1960 C   0  0  0  0  0  0  0  0  0  0  0  0
   36.8270   35.5930   31.9190 N   0  0  0  0  0  0  0  0  0  0  0  0
   34.9910   36.5490   32.8210 C   0  0  0  0  0  0  0  0  0  0  0  0
   37.9840   39.5200   27.9380 C   0  0  0  0  0  0  0  0  0  0  0  0
   31.7770   35.0680   33.4900 N   0  0  0  0  0  0  0  0  0  0  0  0
   37.3960   41.8960   28.3040 C   0  0  0  0  0  0  0  0  0  0  0  0
   32.4510   36.2540   31.7160 O   0  0  0  0  0  0  0  0  0  0  0  0
   39.1120   38.7770   31.2070 N   0  0  0  0  0  0  0  0  0  0  0  0
   38.4030   37.6730   31.1870 C   0  0  0  0  0  0  0  0  0  0  0  0
   33.7960   34.5870   32.6610 C   0  0  0  0  0  0  0  0  0  0  0  0
   37.6700   39.0460   26.9280 O   0  0  0  0  0  0  0  0  0  0  0  0
   37.7230   37.4700   29.7560 S   0  0  0  0  0  0  0  0  0  0  0  0
   38.5530   34.5360   33.5500 C   0  0  0  0  0  0  0  0  0  0  0  0
  1 12  1  0
  1 14  1  0
  2 16  1  0
  3 10  1  0
  3  5  1  0
  3 11  1  0
  4 21  1  0
  5 18  1  0
  5 11  1  0
  7 20  1  0
  7  2  2  0
  8 18  1  0
  8 13  1  0
  9  4  1  0
  9  6  2  0
 10  4  1  0
 12  7  1  0
 15  8  2  0
 17 16  2  0
 17  9  1  0
 19 12  2  0
 20 17  1  0
M  END
$$$$

     RDKit          3D

  6  5  0  0  0  0  0  0  0  0999 V2000
   35.6170   41.5570   26.3960 C   0  0  0  0  0  0  0  0  0  0  0  0
   38.1390   39.6640   26.9840 Cl  0  0  0  0  0  0  0  0  0  0  0  0
   37.0140   43.3550   25.8200 C   0  0  0  0  0  0  0  0  0  0  0  0
   37.4690   42.8730   28.8090 S   0  0  0  0  0  0  0  0  0  0  0  0
   37.8350   41.4000   27.4990 C   0  0  0  0  0  0  0  0  0  0  0  0
   37.0720   41.8890   26.2500 C   0  0  0  0  0  0  0  0  0  0  0  0
  3  6  1  0
  5  2  1  0
  5  4  1  0
  6  1  1  0
  6  5  1  0
M  END
$$$$

     RDKit          3D

 12 12  0  0  0  0  0  0  0  0999 V2000
   39.2250   44.1690   27.2170 N   0  0  0  0  0  0  0  0  0  0  0  0
   36.8940   41.4380   27.7450 N   0  0  0  0  0  0  0  0  0  0  0  0
   35.6570   39.4920   27.2020 N   0  0  0  0  0  0  0  0  0  0  0  0
   36.1930   42.0670   28.6130 C   0  0  0  0  0  0  0  0  0  0  0  0
   37.7150   39.9270   26.3070 O   0  0  0  0  0  0  0  0  0  0  0  0
   36.8030   40.2380   27.1220 C   0  0  0  0  0  0  0  0  0  0  0  0
   34.6340   40.1720   29.2420 N   0  0  0  0  0  0  0  0  0  0  0  0
   36.8360   44.2550   27.9680 C   0  0  0  0  0  0  0  0  0  0  0  0
   37.8660   44.1730   27.0230 C   0  0  0  0  0  0  0  0  0  0  0  0
   34.7460   39.4320   28.2050 C   0  0  0  0  0  0  0  0  0  0  0  0
   34.9910   41.5770   29.3110 C   0  0  0  0  0  0  0  0  0  0  0  0
   36.8060   43.2490   29.0680 O   0  0  0  0  0  0  0  0  0  0  0  0
  2  4  2  0
  3 10  2  0
  4 12  1  0
  4 11  1  0
  5  6  2  0
  6  3  1  0
  6  2  1  0
  7 11  1  0
  8 12  1  0
  9  1  1  0
  9  8  1  0
 10  7  1  0
M  END
$$$$

     RDKit          3D

 12 11  0  0  0  0  0  0  0  0999 V2000
   36.8380   40.3610   24.1680 C   0  0  0  0  0  0  0  0  0  0  0  0
   37.5550   43.9960   30.0520 O   0  0  0  0  0  0  0  0  0  0  0  0
   36.0330   44.0060   28.5370 O   0  0  0  0  0  0  0  0  0  0  0  0
   36.3620   40.4850   22.6810 C   0  0  0  0  0  0  0  0  0  0  0  0
   38.8680   42.0430   28.7380 O   0  0  0  0  0  0  0  0  0  0  0  0
   37.1420   43.6010   28.8900 C   0  0  0  0  0  0  0  0  0  0  0  0
   37.8760   42.5850   26.6070 C   0  0  0  0  0  0  0  0  0  0  0  0
   38.0200   41.1700   24.4820 C   0  0  0  0  0  0  0  0  0  0  0  0
   38.3980   41.2770   25.9490 C   0  0  0  0  0  0  0  0  0  0  0  0
   36.1600   39.8790   24.9740 O   0  0  0  0  0  0  0  0  0  0  0  0
   38.1020   42.7410   28.0470 C   0  0  0  0  0  0  0  0  0  0  0  0
   36.5000   42.7630   26.2800 O   0  0  0  0  0  0  0  0  0  0  0  0
  1  8  1  0
  1 10  2  0
  3  6  2  0
  4  1  1  0
  6  2  1  0
  7 12  1  0
  7 11  1  0
  8  9  1  0
  9  7  1  0
 11  5  2  0
 11  6  1  0
M  END
$$$$

     RDKit          3D

 19 19  0  0  0  0  0  0  0  0999 V2000
   35.3790   38.5260   29.7370 C   0  0  0  0  0  0  0  0  0  0  0  0
   36.8510   42.5120   29.8280 O   0  0  0  0  0  0  0  0  0  0  0  0
   34.7530   38.1990   30.6050 C   0  0  0  0  0  0  0  0  0  0  0  0
   35.6460   31.4600   31.2040 C   0  0  0  0  0  0  0  0  0  0  0  0
   34.7250   33.8250   31.1000 C   0  0  0  0  0  0  0  0  0  0  0  0
   37.8960   41.3700   27.7660 C   0  0  0  0  0  0  0  0  0  0  0  0
   36.8310   41.6450   28.7370 C   0  0  0  0  0  0  0  0  0  0  0  0
   35.8120   34.7780   31.5440 C   0  0  0  0  0  0  0  0  0  0  0  0
   35.9050   40.6300   28.8780 O   0  0  0  0  0  0  0  0  0  0  0  0
   35.4190   32.6300   30.6540 N   0  0  0  0  0  0  0  0  0  0  0  0
   38.6710   42.6780   28.0300 C   0  0  0  0  0  0  0  0  0  0  0  0
   37.1130   34.3900   30.9000 C   0  0  0  0  0  0  0  0  0  0  0  0
   34.5190   36.7120   30.6290 O   0  0  0  0  0  0  0  0  0  0  0  0
   39.3350   43.2050   28.6960 O   0  0  0  0  0  0  0  0  0  0  0  0
   38.6350   40.1900   28.3140 C   0  0  0  0  0  0  0  0  0  0  0  0
   37.3340   41.0660   26.3820 C   0  0  0  0  0  0  0  0  0  0  0  0
   37.5420   39.1750   28.1240 O   0  0  0  0  0  0  0  0  0  0  0  0
   36.6260   39.4770   29.3900 C   0  0  0  0  0  0  0  0  0  0  0  0
   35.4240   36.2110   31.6040 C   0  0  0  0  0  0  0  0  0  0  0  0
  1  3  1  0
  3 13  1  0
  5  8  1  0
  6 16  1  0
  6 11  1  0
  6 15  1  0
  6  7  1  0
  7  9  1  0
  7  2  2  0
  8 12  1  0
  8 19  1  0
  9 18  1  0
 10  5  1  0
 10  4  2  0
 11 14  2  0
 13 19  1  0
 17 15  1  0
 17 18  1  0
 18  1  1  0
M  END
$$$$

     RDKit          3D

 14 16  0  0  0  0  0  0  0  0999 V2000
   34.4020   35.1190   33.2650 N   0  0  0  0  0  0  0  0  0  0  0  0
   34.3680   35.9200   32.3740 C   0  0  0  0  0  0  0  0  0  0  0  0
   37.0150   36.7020   30.4580 N   0  0  0  0  0  0  0  0  0  0  0  0
   37.7920   37.5810   29.8420 C   0  0  0  0  0  0  0  0  0  0  0  0
   34.4750   38.8850   29.5150 C   0  0  0  0  0  0  0  0  0  0  0  0
   34.4790   36.7890   31.2500 C   0  0  0  0  0  0  0  0  0  0  0  0
   36.0230   39.0110   29.3610 C   0  0  0  0  0  0  0  0  0  0  0  0
   35.4380   38.1050   29.7570 C   0  0  0  0  0  0  0  0  0  0  0  0
   33.2770   37.2710   30.7970 C   0  0  0  0  0  0  0  0  0  0  0  0
   35.7160   37.1260   30.5700 C   0  0  0  0  0  0  0  0  0  0  0  0
   36.1220   40.6850   28.6300 O   0  0  0  0  0  0  0  0  0  0  0  0
   37.3580   38.7060   29.3030 C   0  0  0  0  0  0  0  0  0  0  0  0
   33.3020   38.3730   29.8500 C   0  0  0  0  0  0  0  0  0  0  0  0
   37.5350   35.4550   31.0190 C   0  0  0  0  0  0  0  0  0  0  0  0
  2  1  3  0
  3 10  1  0
  3 14  1  0
  4  3  1  0
  5  8  1  0
  5 13  1  0
  6  2  1  0
  7 11  1  0
  7  5  1  0
  7  8  1  0
  8 10  1  0
  9  6  1  0
 10  6  1  0
 12  7  1  0
 12  4  2  0
 13  9  2  0
M  END
$$$$

     RDKit          3D

 14 15  0  0  0  0  0  0  0  0999 V2000
   30.2670   36.8120   30.3290 O   0  0  0  0  0  0  0  0  0  0  0  0
   32.1420   38.2350   30.4290 O   0  0  0  0  0  0  0  0  0  0  0  0
   35.6280   40.7800   30.3830 N   0  0  0  0  0  0  0  0  0  0  0  0
   36.6980   41.7220   30.0740 C   0  0  0  0  0  0  0  0  0  0  0  0
   37.6120   41.4700   28.9150 N   0  0  0  0  0  0  0  0  0  0  0  0
   34.1560   39.1280   29.5160 N   0  0  0  0  0  0  0  0  0  0  0  0
   37.5150   40.2110   28.2470 C   0  0  0  0  0  0  0  0  0  0  0  0
   33.5330   38.1180   30.2710 C   0  0  0  0  0  0  0  0  0  0  0  0
   31.6280   36.9340   30.6920 C   0  0  0  0  0  0  0  0  0  0  0  0
   32.4330   36.1550   29.6220 C   0  0  0  0  0  0  0  0  0  0  0  0
   36.6680   38.0240   28.1220 O   0  0  0  0  0  0  0  0  0  0  0  0
   36.5910   39.1640   28.6470 C   0  0  0  0  0  0  0  0  0  0  0  0
   35.4140   39.6310   29.6370 C   0  0  0  0  0  0  0  0  0  0  0  0
   33.6340   36.8680   29.4200 C   0  0  0  0  0  0  0  0  0  0  0  0
  2  9  1  0
  4  3  1  0
  5  4  1  0
  6 13  1  0
  7 12  1  0
  7  5  2  0
  8  6  1  0
  8  2  1  0
  9  1  1  0
 10  9  1  0
 11 12  2  0
 12 13  1  0
 13  3  2  0
 14 10  1  0
 14  8  1  0
M  END
$$$$

     RDKit          3D

 10  9  0  0  0  0  0  0  0  0999 V2000
   37.4930   42.2240   26.7360 C   0  0  0  0  0  0  0  0  0  0  0  0
   34.2330   41.5410   25.2860 O   0  0  0  0  0  0  0  0  0  0  0  0
   35.6480   41.4820   25.1160 C   0  0  0  0  0  0  0  0  0  0  0  0
   33.4990   41.4740   26.4760 C   0  0  0  0  0  0  0  0  0  0  0  0
   37.8530   42.5550   28.0540 C   0  0  0  0  0  0  0  0  0  0  0  0
   38.0250   44.0760   28.1170 C   0  0  0  0  0  0  0  0  0  0  0  0
   36.0090   41.0500   23.7030 C   0  0  0  0  0  0  0  0  0  0  0  0
   38.4330   41.3860   28.8460 C   0  0  0  0  0  0  0  0  0  0  0  0
   36.5830   41.3260   26.1990 C   0  0  0  0  0  0  0  0  0  0  0  0
   37.2440   41.7300   23.3040 N   0  0  0  0  0  0  0  0  0  0  0  0
  1  5  1  0
  2  4  1  0
  3  7  1  0
  3  2  1  0
  3  9  1  0
  5  6  1  0
  5  8  1  0
  9  1  1  0
 10  7  1  0
M  END
$$$$

     RDKit          3D

 10 10  0  0  0  0  0  0  0  0999 V2000
   36.1700   42.1070   26.3470 C   0  0  0  0  0  0  0  0  0  0  0  0
   34.7010   39.9490   26.4790 O   0  0  0  0  0  0  0  0  0  0  0  0
   36.8730   39.7210   26.0540 N   0  0  0  0  0  0  0  0  0  0  0  0
   37.1480   44.1120   25.8690 C   0  0  0  0  0  0  0  0  0  0  0  0
   35.5870   42.6100   25.8340 C   0  0  0  0  0  0  0  0  0  0  0  0
   37.0450   42.9970   26.4540 N   0  0  0  0  0  0  0  0  0  0  0  0
   36.2200   40.5660   28.1330 O   0  0  0  0  0  0  0  0  0  0  0  0
   35.9630   40.4740   26.7820 S   0  0  0  0  0  0  0  0  0  0  0  0
   36.3270   44.1260   24.7500 C   0  0  0  0  0  0  0  0  0  0  0  0
   35.5130   43.6030   24.7340 N   0  0  0  0  0  0  0  0  0  0  0  0
  1  6  2  0
  1  8  1  0
  2  8  2  0
  3  8  1  0
  4  6  1  0
  5  1  1  0
  8  7  2  0
  9  4  1  0
 10  9  1  0
 10  5  1  0
M  END
$$$$
