
     RDKit          3D

 17 18  0  0  0  0  0  0  0  0999 V2000
   35.6160   33.1070   31.6770 C   0  0  0  0  0  0  0  0  0  0  0  0
   39.4900   38.8870   28.1100 O   0  0  0  0  0  0  0  0  0  0  0  0
   38.8920   34.7670   29.5940 C   0  0  0  0  0  0  0  0  0  0  0  0
   39.1480   36.1150   29.3850 C   0  0  0  0  0  0  0  0  0  0  0  0
   40.6410   35.6180   27.4320 C   0  0  0  0  0  0  0  0  0  0  0  0
   36.5380   35.0480   30.5240 C   0  0  0  0  0  0  0  0  0  0  0  0
   39.9090   33.8160   29.0450 C   0  0  0  0  0  0  0  0  0  0  0  0
   36.2550   32.1630   30.7340 C   0  0  0  0  0  0  0  0  0  0  0  0
   40.2380   37.9070   28.3040 C   0  0  0  0  0  0  0  0  0  0  0  0
   36.0130   36.2730   29.9940 O   0  0  0  0  0  0  0  0  0  0  0  0
   38.6050   36.9360   30.1330 O   0  0  0  0  0  0  0  0  0  0  0  0
   40.8200   34.3510   28.1010 O   0  0  0  0  0  0  0  0  0  0  0  0
   37.6970   34.2100   30.2790 C   0  0  0  0  0  0  0  0  0  0  0  0
   40.0300   36.5760   28.3500 C   0  0  0  0  0  0  0  0  0  0  0  0
   35.4140   34.4270   31.0990 N   0  0  0  0  0  0  0  0  0  0  0  0
   37.5160   32.7310   30.1120 C   0  0  0  0  0  0  0  0  0  0  0  0
   34.8800   36.8100   30.7530 C   0  0  0  0  0  0  0  0  0  0  0  0
  2  9  2  0
  3 13  2  3
  4  3  1  0
  4 11  2  0
  5 12  1  0
  5 14  1  0
  6 15  2  0
  7  3  1  0
  8  1  1  0
 10  6  1  0
 10 17  1  0
 12  7  1  0
 13  6  1  0
 14  9  1  0
 14  4  1  0
 15  1  1  0
 16 13  1  0
 16  8  1  0
M  END
$$$$

     RDKit          3D

  8  8  0  0  0  0  0  0  0  0999 V2000
   34.2790   36.4150   26.3910 O   0  0  0  0  0  0  0  0  0  0  0  0
   37.7520   36.5160   27.1100 C   0  0  0  0  0  0  0  0  0  0  0  0
   35.3420   36.2960   26.9920 C   0  0  0  0  0  0  0  0  0  0  0  0
   37.2960   35.9180   28.4500 C   0  0  0  0  0  0  0  0  0  0  0  0
   37.1220   36.9970   24.7760 N   0  0  0  0  0  0  0  0  0  0  0  0
   35.8140   36.0810   28.4280 C   0  0  0  0  0  0  0  0  0  0  0  0
   38.9390   36.6990   26.8370 O   0  0  0  0  0  0  0  0  0  0  0  0
   36.7190   36.6350   26.1370 C   0  0  0  0  0  0  0  0  0  0  0  0
  1  3  2  0
  2  4  1  0
  3  6  1  0
  5  8  1  0
  6  4  1  0
  7  2  2  0
  8  3  1  0
  8  2  1  0
M  END
$$$$

     RDKit          3D

 26 29  0  0  0  0  0  0  0  0999 V2000
   33.7390   34.3310   33.3530 O   0  0  0  0  0  0  0  0  0  0  0  0
   36.5230   32.9370   31.4070 C   0  0  0  0  0  0  0  0  0  0  0  0
   35.4460   33.7490   32.1190 C   0  0  0  0  0  0  0  0  0  0  0  0
   34.8980   31.7500   33.2870 C   0  0  0  0  0  0  0  0  0  0  0  0
   37.9130   33.5520   31.0930 C   0  0  0  0  0  0  0  0  0  0  0  0
   34.2780   31.1170   34.4020 O   0  0  0  0  0  0  0  0  0  0  0  0
   34.2750   33.1180   32.8550 C   0  0  0  0  0  0  0  0  0  0  0  0
   39.2190   40.4850   26.0300 C   0  0  0  0  0  0  0  0  0  0  0  0
   37.9700   40.1120   25.4150 C   0  0  0  0  0  0  0  0  0  0  0  0
   39.5050   37.6200   28.6990 C   0  0  0  0  0  0  0  0  0  0  0  0
   33.9850   29.7250   34.4670 C   0  0  0  0  0  0  0  0  0  0  0  0
   40.3570   40.5090   28.1770 F   0  0  0  0  0  0  0  0  0  0  0  0
   38.8520   38.5290   27.6620 C   0  0  0  0  0  0  0  0  0  0  0  0
   36.7340   35.7760   31.6930 C   0  0  0  0  0  0  0  0  0  0  0  0
   34.3380   35.4920   32.8820 C   0  0  0  0  0  0  0  0  0  0  0  0
   37.7110   38.1910   26.9780 C   0  0  0  0  0  0  0  0  0  0  0  0
   38.5520   37.3020   29.8350 C   0  0  0  0  0  0  0  0  0  0  0  0
   33.8630   36.5920   33.1070 O   0  0  0  0  0  0  0  0  0  0  0  0
   34.7450   29.0380   33.4070 C   0  0  0  0  0  0  0  0  0  0  0  0
   35.4540   35.1500   32.2040 C   0  0  0  0  0  0  0  0  0  0  0  0
   39.4720   39.8420   27.3420 C   0  0  0  0  0  0  0  0  0  0  0  0
   40.0040   36.2880   28.1710 C   0  0  0  0  0  0  0  0  0  0  0  0
   37.8460   35.0860   30.9480 C   0  0  0  0  0  0  0  0  0  0  0  0
   39.3880   35.1820   29.0160 C   0  0  0  0  0  0  0  0  0  0  0  0
   37.1990   39.0110   25.9110 C   0  0  0  0  0  0  0  0  0  0  0  0
   38.5830   35.8480   30.0540 N   0  0  0  0  0  0  0  0  0  0  0  0
  2  3  1  0
  3 20  2  0
  3  7  1  0
  4  6  1  0
  5  2  1  0
  6 11  1  0
  7  4  1  0
  7  1  1  0
  8 21  1  0
  9 25  2  0
  9  8  1  0
 10 13  1  0
 10 17  1  0
 14 20  1  0
 15 18  2  0
 15  1  1  0
 16 13  2  0
 17 26  1  0
 19 11  1  0
 20 15  1  0
 21 13  1  0
 21 12  1  0
 22 10  1  0
 22 24  2  0
 23 26  1  0
 23  5  1  0
 23 14  1  0
 24 26  1  0
 25 16  1  0
M  END
$$$$

     RDKit          3D

 11 10  0  0  0  0  0  0  0  0999 V2000
   39.7520   38.5570   25.3540 C   0  0  0  0  0  0  0  0  0  0  0  0
   39.1980   37.1330   27.5840 O   0  0  0  0  0  0  0  0  0  0  0  0
   39.9290   35.8050   25.3060 O   0  0  0  0  0  0  0  0  0  0  0  0
   38.8100   38.1680   26.6040 C   0  0  0  0  0  0  0  0  0  0  0  0
   38.6760   39.5080   27.3780 C   0  0  0  0  0  0  0  0  0  0  0  0
   41.1980   38.9890   25.5580 C   0  0  0  0  0  0  0  0  0  0  0  0
   41.7040   38.3870   26.8400 C   0  0  0  0  0  0  0  0  0  0  0  0
   37.4550   37.7510   25.9740 C   0  0  0  0  0  0  0  0  0  0  0  0
   42.0640   36.9010   26.6230 C   0  0  0  0  0  0  0  0  0  0  0  0
   43.0120   36.8700   27.7070 O   0  0  0  0  0  0  0  0  0  0  0  0
   41.1360   35.8280   26.1510 C   0  0  0  0  0  0  0  0  0  0  0  0
  1  6  1  0
  1  4  1  0
  3 11  1  0
  4  5  1  0
  4  2  1  0
  6  7  1  0
  8  4  1  0
  9  7  1  0
  9 10  1  0
 11  9  1  0
M  END
$$$$

     RDKit          3D

  5  4  0  0  0  0  0  0  0  0999 V2000
   38.9290   37.6530   30.0910 C   0  0  0  0  0  0  0  0  0  0  0  0
   39.3830   37.4490   28.7620 C   0  0  0  0  0  0  0  0  0  0  0  0
   39.5010   35.9630   28.4640 C   0  0  0  0  0  0  0  0  0  0  0  0
   38.7130   35.0170   28.2390 O   0  0  0  0  0  0  0  0  0  0  0  0
   40.4580   35.9390   27.8690 O   0  0  0  0  0  0  0  0  0  0  0  0
  2  1  1  0
  3  2  1  0
  4  3  1  0
  5  3  2  0
M  END
$$$$

     RDKit          3D

 10 10  0  0  0  0  0  0  0  0999 V2000
   36.6110   36.2120   28.6640 O   0  0  0  0  0  0  0  0  0  0  0  0
   37.5820   37.2870   29.0020 C   0  0  0  0  0  0  0  0  0  0  0  0
   37.9160   37.6820   27.7980 C   0  0  0  0  0  0  0  0  0  0  0  0
   39.3960   35.9590   28.5180 C   0  0  0  0  0  0  0  0  0  0  0  0
   38.7120   36.5980   29.6130 O   0  0  0  0  0  0  0  0  0  0  0  0
   39.0510   36.8220   27.3220 C   0  0  0  0  0  0  0  0  0  0  0  0
   41.7530   35.0430   28.8350 O   0  0  0  0  0  0  0  0  0  0  0  0
   40.1980   37.5970   26.9620 O   0  0  0  0  0  0  0  0  0  0  0  0
   40.7530   35.3540   28.2440 C   0  0  0  0  0  0  0  0  0  0  0  0
   37.3460   38.4620   26.9610 O   0  0  0  0  0  0  0  0  0  0  0  0
  2  1  1  0
  2  5  1  0
  3  2  1  0
  4  9  1  0
  4  5  1  0
  6  8  1  0
  6  3  1  0
  6  4  1  0
  9  7  2  0
 10  3  2  0
M  END
$$$$

     RDKit          3D

  6  5  0  0  0  0  0  0  0  0999 V2000
   43.2330   38.3110   27.7100 C   0  0  0  0  0  0  0  0  0  0  0  0
   42.8370   36.9060   27.0710 C   0  0  0  0  0  0  0  0  0  0  0  0
   43.5590   36.4780   26.4660 O   0  0  0  0  0  0  0  0  0  0  0  0
   41.1580   36.6930   27.0700 C   0  0  0  0  0  0  0  0  0  0  0  0
   40.5630   35.3580   27.8980 C   0  0  0  0  0  0  0  0  0  0  0  0
   40.4870   37.8240   27.5630 O   0  0  0  0  0  0  0  0  0  0  0  0
  2  1  1  0
  3  2  2  0
  4  2  1  0
  4  6  1  0
  4  5  1  0
M  END
$$$$

     RDKit          3D

 12 12  0  0  0  0  0  0  0  0999 V2000
   38.9320   37.2110   25.4430 C   0  0  0  0  0  0  0  0  0  0  0  0
   39.5610   37.5410   26.8370 C   0  0  0  0  0  0  0  0  0  0  0  0
   39.1920   36.7800   24.0830 O   0  0  0  0  0  0  0  0  0  0  0  0
   42.5360   36.7170   25.3180 C   0  0  0  0  0  0  0  0  0  0  0  0
   40.7900   36.7610   27.3550 C   0  0  0  0  0  0  0  0  0  0  0  0
   37.7680   38.0230   25.3720 O   0  0  0  0  0  0  0  0  0  0  0  0
   41.8050   37.1100   26.6040 C   0  0  0  0  0  0  0  0  0  0  0  0
   41.4010   37.1220   28.6340 O   0  0  0  0  0  0  0  0  0  0  0  0
   41.2460   36.4800   25.2510 C   0  0  0  0  0  0  0  0  0  0  0  0
   41.8110   38.3840   28.9370 O   0  0  0  0  0  0  0  0  0  0  0  0
   43.0130   37.4040   27.4410 C   0  0  0  0  0  0  0  0  0  0  0  0
   44.0290   37.7810   27.7150 O   0  0  0  0  0  0  0  0  0  0  0  0
  1  2  1  0
  3  1  2  0
  4  7  1  0
  5  2  1  0
  5  8  1  0
  6  1  1  0
  7  5  1  0
  7 11  1  0
  8 10  1  0
  9  4  1  0
  9  7  1  0
 11 12  1  0
M  END
$$$$

     RDKit          3D

 19 19  0  0  0  0  0  0  0  0999 V2000
   41.1290   36.3590   27.6920 C   0  0  0  0  0  0  0  0  0  0  0  0
   40.0990   36.9650   28.5120 C   0  0  0  0  0  0  0  0  0  0  0  0
   36.6940   36.9840   27.7620 N   0  0  0  0  0  0  0  0  0  0  0  0
   36.0150   37.0780   28.6780 N   0  0  0  0  0  0  0  0  0  0  0  0
   37.9850   37.3800   27.6500 C   0  0  0  0  0  0  0  0  0  0  0  0
   42.8740   37.4450   28.9920 C   0  0  0  0  0  0  0  0  0  0  0  0
   40.4850   38.0490   29.3470 C   0  0  0  0  0  0  0  0  0  0  0  0
   30.6970   36.0170   28.1550 C   0  0  0  0  0  0  0  0  0  0  0  0
   42.4850   36.4570   28.0750 C   0  0  0  0  0  0  0  0  0  0  0  0
   29.9510   37.3280   27.9600 C   0  0  0  0  0  0  0  0  0  0  0  0
   38.8180   36.5430   28.4560 N   0  0  0  0  0  0  0  0  0  0  0  0
   32.4800   37.4080   28.0240 C   0  0  0  0  0  0  0  0  0  0  0  0
   38.4220   38.5250   27.3720 N   0  0  0  0  0  0  0  0  0  0  0  0
   41.8700   38.3220   29.5020 C   0  0  0  0  0  0  0  0  0  0  0  0
   28.4670   37.1570   27.9840 C   0  0  0  0  0  0  0  0  0  0  0  0
   34.6180   37.0220   28.8600 C   0  0  0  0  0  0  0  0  0  0  0  0
   32.1750   36.0420   28.5430 N   0  0  0  0  0  0  0  0  0  0  0  0
   27.9360   38.4190   28.3150 O   0  0  0  0  0  0  0  0  0  0  0  0
   33.9310   37.4840   27.5820 C   0  0  0  0  0  0  0  0  0  0  0  0
  1  9  2  0
  1  2  1  0
  2  7  2  0
  3  4  2  3
  4 16  1  0
  5  3  1  0
  5 11  1  0
  6 14  2  0
  7 14  1  0
  8 17  1  0
  9  6  1  0
 10 15  1  0
 10  8  1  0
 11  2  1  0
 12 17  1  0
 13  5  2  0
 15 18  1  0
 19 12  1  0
 19 16  1  0
M  END
$$$$

     RDKit          3D

  7  7  0  0  0  0  0  0  0  0999 V2000
   41.0990   39.0130   27.3010 C   0  0  0  0  0  0  0  0  0  0  0  0
   42.1110   38.1570   26.6540 N   0  0  0  0  0  0  0  0  0  0  0  0
   39.8940   38.1230   27.3510 C   0  0  0  0  0  0  0  0  0  0  0  0
   39.8940   35.6900   27.4410 F   0  0  0  0  0  0  0  0  0  0  0  0
   41.0590   40.2840   26.8890 O   0  0  0  0  0  0  0  0  0  0  0  0
   40.5440   36.8430   27.7310 C   0  0  0  0  0  0  0  0  0  0  0  0
   41.6860   36.8780   26.8580 O   0  0  0  0  0  0  0  0  0  0  0  0
  1  5  1  0
  1  3  1  0
  2  7  1  0
  2  1  1  0
  3  6  1  0
  6  4  1  0
  7  6  1  0
M  END
$$$$

     RDKit          3D

  8  7  0  0  0  0  0  0  0  0999 V2000
   43.9100   37.0170   28.1470 O   0  0  0  0  0  0  0  0  0  0  0  0
   42.7420   36.7410   28.9170 C   0  0  0  0  0  0  0  0  0  0  0  0
   41.5200   37.3660   28.2610 C   0  0  0  0  0  0  0  0  0  0  0  0
   41.3230   36.5080   26.0550 C   0  0  0  0  0  0  0  0  0  0  0  0
   39.4610   36.4530   27.0950 O   0  0  0  0  0  0  0  0  0  0  0  0
   40.9910   38.3990   28.5690 O   0  0  0  0  0  0  0  0  0  0  0  0
   40.7680   36.2680   27.5430 C   0  0  0  0  0  0  0  0  0  0  0  0
   40.5150   35.0730   28.9090 S   0  0  0  0  0  0  0  0  0  0  0  0
  1  2  1  0
  3  6  2  0
  3  2  1  0
  5  7  1  0
  7  4  1  0
  7  3  1  0
  7  8  1  0
M  END
$$$$

     RDKit          3D

 23 28  0  0  0  0  0  0  0  0999 V2000
   41.4260   39.2240   26.2050 C   0  0  0  0  0  0  0  0  0  0  0  0
   37.6690   33.8260   29.7830 N   0  0  0  0  0  0  0  0  0  0  0  0
   37.8790   36.4660   29.0490 C   0  0  0  0  0  0  0  0  0  0  0  0
   41.5830   38.1780   27.3710 C   0  0  0  0  0  0  0  0  0  0  0  0
   38.8980   34.2170   29.2890 C   0  0  0  0  0  0  0  0  0  0  0  0
   38.9190   39.3390   26.8120 C   0  0  0  0  0  0  0  0  0  0  0  0
   39.0660   35.6140   28.9670 C   0  0  0  0  0  0  0  0  0  0  0  0
   38.0190   37.6910   28.4630 N   0  0  0  0  0  0  0  0  0  0  0  0
   39.9760   39.4310   25.7210 C   0  0  0  0  0  0  0  0  0  0  0  0
   33.0380   34.4800   33.5170 C   0  0  0  0  0  0  0  0  0  0  0  0
   38.5730   40.5670   27.3960 N   0  0  0  0  0  0  0  0  0  0  0  0
   42.3580   38.3480   25.3170 C   0  0  0  0  0  0  0  0  0  0  0  0
   36.8130   36.0680   29.7070 N   0  0  0  0  0  0  0  0  0  0  0  0
   39.1780   38.3340   27.9360 C   0  0  0  0  0  0  0  0  0  0  0  0
   34.4830   34.8580   31.2150 C   0  0  0  0  0  0  0  0  0  0  0  0
   33.7540   35.0950   32.3180 N   0  0  0  0  0  0  0  0  0  0  0  0
   40.3490   37.3870   27.6750 C   0  0  0  0  0  0  0  0  0  0  0  0
   35.4990   34.3370   30.6360 N   0  0  0  0  0  0  0  0  0  0  0  0
   34.7610   35.8270   32.3370 C   0  0  0  0  0  0  0  0  0  0  0  0
   42.2310   37.1680   26.2830 C   0  0  0  0  0  0  0  0  0  0  0  0
   40.1810   36.1590   28.3770 N   0  0  0  0  0  0  0  0  0  0  0  0
   36.7060   34.7490   30.0560 C   0  0  0  0  0  0  0  0  0  0  0  0
   32.6990   35.2860   32.7180 C   0  0  0  0  0  0  0  0  0  0  0  0
  1 12  1  0
  1  4  1  0
  2 22  2  0
  3 13  1  0
  4 20  1  0
  4 17  1  0
  5  2  1  0
  6 11  1  0
  6 14  1  0
  7  3  1  0
  7  5  1  0
  8  3  2  0
  9  1  1  0
  9  6  1  0
 12 20  1  0
 13 22  2  0
 14  8  1  0
 15 18  1  0
 15 16  1  0
 15 19  1  0
 16 19  1  0
 16 23  1  0
 16 10  1  0
 17 14  1  0
 17 21  1  0
 21  7  2  0
 22 18  1  0
 23 10  1  0
M  END
$$$$

     RDKit          3D

 28 32  0  0  0  0  0  0  0  0999 V2000
   39.9160   37.9600   25.1820 C   0  0  0  0  0  0  0  0  0  0  0  0
   37.7530   35.1030   30.6680 C   0  0  0  0  0  0  0  0  0  0  0  0
   34.8920   31.9010   33.0840 C   0  0  0  0  0  0  0  0  0  0  0  0
   37.8770   40.3200   23.7520 C   0  0  0  0  0  0  0  0  0  0  0  0
   33.9450   30.7140   34.7220 C   0  0  0  0  0  0  0  0  0  0  0  0
   40.3330   39.1250   24.2570 C   0  0  0  0  0  0  0  0  0  0  0  0
   34.4070   30.2340   35.8300 C   0  0  0  0  0  0  0  0  0  0  0  0
   35.0230   34.6770   32.0190 C   0  0  0  0  0  0  0  0  0  0  0  0
   40.5490   36.3750   28.0320 N   0  0  0  0  0  0  0  0  0  0  0  0
   41.0180   40.1770   25.2110 C   0  0  0  0  0  0  0  0  0  0  0  0
   33.1160   31.8940   34.3070 C   0  0  0  0  0  0  0  0  0  0  0  0
   39.1110   41.0930   23.5730 C   0  0  0  0  0  0  0  0  0  0  0  0
   36.1850   33.8370   32.2250 C   0  0  0  0  0  0  0  0  0  0  0  0
   39.8370   36.4790   30.3420 C   0  0  0  0  0  0  0  0  0  0  0  0
   40.0640   40.4460   24.5430 N   0  0  0  0  0  0  0  0  0  0  0  0
   42.4800   39.5850   25.3620 C   0  0  0  0  0  0  0  0  0  0  0  0
   35.2230   35.8590   32.7890 O   0  0  0  0  0  0  0  0  0  0  0  0
   40.4650   36.3410   26.6860 C   0  0  0  0  0  0  0  0  0  0  0  0
   39.2110   35.3170   30.9670 C   0  0  0  0  0  0  0  0  0  0  0  0
   33.6980   34.0490   32.4840 C   0  0  0  0  0  0  0  0  0  0  0  0
   35.9810   32.3260   32.4620 C   0  0  0  0  0  0  0  0  0  0  0  0
   42.2920   38.2480   26.1830 C   0  0  0  0  0  0  0  0  0  0  0  0
   33.7340   30.9030   33.3440 C   0  0  0  0  0  0  0  0  0  0  0  0
   41.0720   37.3810   25.8900 N   0  0  0  0  0  0  0  0  0  0  0  0
   33.9520   33.0200   33.6030 C   0  0  0  0  0  0  0  0  0  0  0  0
   40.0480   35.3220   26.1360 O   0  0  0  0  0  0  0  0  0  0  0  0
   39.4480   36.8040   28.9000 C   0  0  0  0  0  0  0  0  0  0  0  0
   37.1760   33.7960   31.0860 C   0  0  0  0  0  0  0  0  0  0  0  0
  1 24  1  0
  2 19  2  3
  2 28  1  0
  3 21  1  0
  3 23  1  0
  3 25  1  0
  5  7  2  0
  6 15  1  0
  6  1  1  0
  6 10  1  0
  8 13  1  0
  8 20  1  0
  8 17  1  0
  9 27  1  0
 10 16  1  0
 11  5  1  0
 12  4  1  0
 12 15  1  0
 13 28  1  0
 13 21  1  0
 14 19  1  0
 15 10  1  0
 16 22  1  0
 18  9  1  0
 23 11  1  0
 23  5  1  0
 24 22  1  0
 24 18  1  0
 25 20  1  0
 25 11  1  0
 26 18  2  0
 27 14  1  0
M  END
$$$$

     RDKit          3D

 13 12  0  0  0  0  0  0  0  0999 V2000
   37.7820   37.4290   27.5710 C   0  0  0  0  0  0  0  0  0  0  0  0
   40.1970   37.1000   28.2730 C   0  0  0  0  0  0  0  0  0  0  0  0
   39.8490   34.4070   22.9110 O   0  0  0  0  0  0  0  0  0  0  0  0
   39.0600   37.2010   25.3180 O   0  0  0  0  0  0  0  0  0  0  0  0
   40.9590   37.9120   26.1830 O   0  0  0  0  0  0  0  0  0  0  0  0
   38.0530   39.6940   26.9540 S   0  0  0  0  0  0  0  0  0  0  0  0
   41.1970   37.3550   29.0470 O   0  0  0  0  0  0  0  0  0  0  0  0
   39.0520   38.0670   27.5240 C   0  0  0  0  0  0  0  0  0  0  0  0
   41.7630   37.0770   25.0690 C   0  0  0  0  0  0  0  0  0  0  0  0
   40.2770   35.6260   23.4220 C   0  0  0  0  0  0  0  0  0  0  0  0
   40.0710   35.9030   27.9960 O   0  0  0  0  0  0  0  0  0  0  0  0
   41.2540   35.6720   24.6830 C   0  0  0  0  0  0  0  0  0  0  0  0
   39.6190   37.9700   26.1210 C   0  0  0  0  0  0  0  0  0  0  0  0
  2  7  1  0
  3 10  1  0
  6  8  1  0
  8  1  1  0
  8  2  1  0
  9  5  1  0
 10 12  2  3
 11  2  2  0
 12  9  1  0
 13  4  1  0
 13  5  1  0
 13  8  1  0
M  END
$$$$

     RDKit          3D

 10 10  0  0  0  0  0  0  0  0999 V2000
   42.1290   38.2450   27.1860 C   0  0  0  0  0  0  0  0  0  0  0  0
   40.1210   39.6070   26.8650 C   0  0  0  0  0  0  0  0  0  0  0  0
   42.6820   39.2290   27.9810 C   0  0  0  0  0  0  0  0  0  0  0  0
   40.3420   35.9350   26.9540 N   0  0  0  0  0  0  0  0  0  0  0  0
   42.7800   37.0800   27.1000 N   0  0  0  0  0  0  0  0  0  0  0  0
   38.4700   39.6310   25.9480 Br  0  0  0  0  0  0  0  0  0  0  0  0
   42.0950   40.3810   27.9520 N   0  0  0  0  0  0  0  0  0  0  0  0
   40.0400   37.1930   26.2500 C   0  0  0  0  0  0  0  0  0  0  0  0
   40.7940   38.3410   26.8400 C   0  0  0  0  0  0  0  0  0  0  0  0
   40.8410   40.6160   27.5320 C   0  0  0  0  0  0  0  0  0  0  0  0
  1  3  1  0
  2 10  2  0
  5  1  1  0
  6  2  1  0
  7  3  2  0
  8  9  1  0
  8  4  1  0
  9  2  1  0
  9  1  2  0
 10  7  1  0
M  END
$$$$

     RDKit          3D

 25 26  0  0  0  0  0  0  0  0999 V2000
   40.7890   39.2990   23.9300 C   0  0  0  0  0  0  0  0  0  0  0  0
   37.8050   33.1370   30.1180 C   0  0  0  0  0  0  0  0  0  0  0  0
   40.0820   39.4610   27.3030 C   0  0  0  0  0  0  0  0  0  0  0  0
   36.0950   34.5640   30.9940 C   0  0  0  0  0  0  0  0  0  0  0  0
   38.8580   36.8990   29.9200 C   0  0  0  0  0  0  0  0  0  0  0  0
   39.4570   28.2240   30.9640 N   0  0  0  0  0  0  0  0  0  0  0  0
   39.1540   40.6790   27.2620 C   0  0  0  0  0  0  0  0  0  0  0  0
   38.6330   34.2950   29.8450 C   0  0  0  0  0  0  0  0  0  0  0  0
   39.8530   41.9240   26.8460 C   0  0  0  0  0  0  0  0  0  0  0  0
   40.7640   40.1870   25.0510 O   0  0  0  0  0  0  0  0  0  0  0  0
   34.7790   32.8990   31.9150 C   0  0  0  0  0  0  0  0  0  0  0  0
   38.6660   38.0370   28.8330 C   0  0  0  0  0  0  0  0  0  0  0  0
   38.0460   35.6270   30.0880 C   0  0  0  0  0  0  0  0  0  0  0  0
   36.6180   33.2980   30.8380 C   0  0  0  0  0  0  0  0  0  0  0  0
   37.8670   31.8410   29.7730 N   0  0  0  0  0  0  0  0  0  0  0  0
   41.1730   39.5430   26.3130 C   0  0  0  0  0  0  0  0  0  0  0  0
   39.5160   30.5280   29.5690 O   0  0  0  0  0  0  0  0  0  0  0  0
   38.3330   28.7860   31.6520 C   0  0  0  0  0  0  0  0  0  0  0  0
   38.4940   30.8450   30.1940 C   0  0  0  0  0  0  0  0  0  0  0  0
   35.9560   32.2760   31.3620 N   0  0  0  0  0  0  0  0  0  0  0  0
   36.7940   35.7050   30.5970 C   0  0  0  0  0  0  0  0  0  0  0  0
   41.2970   42.1490   26.7260 C   0  0  0  0  0  0  0  0  0  0  0  0
   38.4240   30.3280   31.6160 C   0  0  0  0  0  0  0  0  0  0  0  0
   39.9790   38.8160   28.6980 C   0  0  0  0  0  0  0  0  0  0  0  0
   34.9350   34.3490   31.7310 O   0  0  0  0  0  0  0  0  0  0  0  0
  1 10  1  0
  2 14  1  0
  3 16  1  0
  3 24  1  0
  4 25  1  0
  5 13  1  0
  6 18  1  0
  7  3  1  0
  8 13  1  0
  8  2  2  0
  9  7  1  0
 10 16  1  0
 12  5  1  0
 13 21  2  0
 14  4  2  0
 14 20  1  0
 15  2  1  0
 15 19  1  0
 17 19  2  0
 19 23  1  0
 20 11  2  0
 21  4  1  0
 22  9  1  0
 23 18  1  0
 24 12  1  0
 25 11  1  0
M  END
$$$$

     RDKit          3D

  8  7  0  0  0  0  0  0  0  0999 V2000
   41.0660   35.3630   28.3940 F   0  0  0  0  0  0  0  0  0  0  0  0
   41.4420   37.6670   28.9000 C   0  0  0  0  0  0  0  0  0  0  0  0
   38.8310   36.2190   27.6140 F   0  0  0  0  0  0  0  0  0  0  0  0
   42.3300   36.7920   26.9810 C   0  0  0  0  0  0  0  0  0  0  0  0
   41.0350   36.6190   27.9170 C   0  0  0  0  0  0  0  0  0  0  0  0
   39.8870   36.8610   27.0620 C   0  0  0  0  0  0  0  0  0  0  0  0
   43.1380   37.6970   29.2000 C   0  0  0  0  0  0  0  0  0  0  0  0
   39.5070   38.2270   26.9910 O   0  0  0  0  0  0  0  0  0  0  0  0
  2  7  1  0
  5  4  1  0
  5  1  1  0
  5  2  1  0
  6  8  1  0
  6  3  1  0
  6  5  1  0
M  END
$$$$

     RDKit          3D

 11 11  0  0  0  0  0  0  0  0999 V2000
   38.9490   34.4100   29.9090 C   0  0  0  0  0  0  0  0  0  0  0  0
   38.3980   38.1420   29.6100 C   0  0  0  0  0  0  0  0  0  0  0  0
   38.9450   36.8520   29.6240 C   0  0  0  0  0  0  0  0  0  0  0  0
   40.9780   37.6750   28.6950 C   0  0  0  0  0  0  0  0  0  0  0  0
   35.8880   36.3440   30.3020 O   0  0  0  0  0  0  0  0  0  0  0  0
   40.4870   38.9880   28.7780 C   0  0  0  0  0  0  0  0  0  0  0  0
   38.1550   35.6660   29.8270 C   0  0  0  0  0  0  0  0  0  0  0  0
   36.7660   35.4290   30.2410 C   0  0  0  0  0  0  0  0  0  0  0  0
   39.1870   39.2290   29.2270 C   0  0  0  0  0  0  0  0  0  0  0  0
   40.3480   36.6690   29.4520 C   0  0  0  0  0  0  0  0  0  0  0  0
   36.4270   34.2590   30.2740 O   0  0  0  0  0  0  0  0  0  0  0  0
  2  3  2  0
  3  7  1  0
  4  6  1  0
  4 10  1  0
  6  9  2  0
  7  1  1  0
  7  8  1  0
  8 11  2  0
  8  5  1  0
  9  2  1  0
 10  3  1  0
M  END
$$$$

     RDKit          3D

 20 21  0  0  0  0  0  0  0  0999 V2000
   34.9890   35.9890   30.5160 C   0  0  0  0  0  0  0  0  0  0  0  0
   41.2030   37.3130   26.6390 C   0  0  0  0  0  0  0  0  0  0  0  0
   36.2940   35.3390   30.4840 C   0  0  0  0  0  0  0  0  0  0  0  0
   32.7470   36.7790   30.1750 C   0  0  0  0  0  0  0  0  0  0  0  0
   41.2440   38.5370   27.4650 N   0  0  0  0  0  0  0  0  0  0  0  0
   37.5970   36.9460   29.0710 C   0  0  0  0  0  0  0  0  0  0  0  0
   41.2520   36.4180   27.8670 C   0  0  0  0  0  0  0  0  0  0  0  0
   34.3910   35.2290   32.0040 C   0  0  0  0  0  0  0  0  0  0  0  0
   35.0060   34.4840   33.0870 N   0  0  0  0  0  0  0  0  0  0  0  0
   37.4580   35.7350   29.7130 C   0  0  0  0  0  0  0  0  0  0  0  0
   39.9450   36.4880   28.6940 C   0  0  0  0  0  0  0  0  0  0  0  0
   38.4720   34.7820   29.6970 C   0  0  0  0  0  0  0  0  0  0  0  0
   41.7640   38.7080   28.8970 C   0  0  0  0  0  0  0  0  0  0  0  0
   36.3840   34.0630   31.1080 O   0  0  0  0  0  0  0  0  0  0  0  0
   33.0460   35.3930   32.1530 C   0  0  0  0  0  0  0  0  0  0  0  0
   32.3370   36.0850   31.3340 C   0  0  0  0  0  0  0  0  0  0  0  0
   38.6760   37.3110   28.4630 C   0  0  0  0  0  0  0  0  0  0  0  0
   39.4720   35.0750   28.7240 C   0  0  0  0  0  0  0  0  0  0  0  0
   34.0700   36.7410   29.8260 C   0  0  0  0  0  0  0  0  0  0  0  0
   39.9040   39.0590   27.3520 C   0  0  0  0  0  0  0  0  0  0  0  0
  1  8  1  0
  2  5  1  0
  2  7  1  0
  3  1  1  0
  3 14  1  0
  4 16  2  0
  5 13  1  0
  6 10  1  0
  8 15  2  0
  8  9  1  0
 10  3  2  3
 11  7  1  0
 11 18  1  0
 12 10  1  0
 16 15  1  0
 17 11  1  0
 17  6  2  0
 18 12  1  0
 19  4  1  0
 19  1  2  0
 20  5  1  0
M  END
$$$$

     RDKit          3D

  8  8  0  0  0  0  0  0  0  0999 V2000
   39.4620   37.2330   27.4440 C   0  0  0  0  0  0  0  0  0  0  0  0
   41.5920   37.3520   26.8210 C   0  0  0  0  0  0  0  0  0  0  0  0
   39.5920   36.4960   25.9670 C   0  0  0  0  0  0  0  0  0  0  0  0
   40.5960   38.1820   27.5440 C   0  0  0  0  0  0  0  0  0  0  0  0
   42.9770   37.9650   26.4420 C   0  0  0  0  0  0  0  0  0  0  0  0
   40.9900   36.9180   25.5390 C   0  0  0  0  0  0  0  0  0  0  0  0
   43.0340   39.0210   25.7380 O   0  0  0  0  0  0  0  0  0  0  0  0
   44.0480   37.6120   26.9510 O   0  0  0  0  0  0  0  0  0  0  0  0
  1  4  1  0
  2  4  1  0
  3  1  1  0
  5  2  1  0
  5  8  1  0
  6  3  1  0
  6  2  1  0
  7  5  2  0
M  END
$$$$
