
     RDKit          3D

 10 10  0  0  0  0  0  0  0  0999 V2000
   38.2080   40.6760   27.3300 C   0  0  0  0  0  0  0  0  0  0  0  0
   38.6420   41.8300   28.6310 O   0  0  0  0  0  0  0  0  0  0  0  0
   39.7000   38.6480   27.0750 O   0  0  0  0  0  0  0  0  0  0  0  0
   38.7040   40.3750   28.6430 C   0  0  0  0  0  0  0  0  0  0  0  0
   36.7150   39.0620   29.3050 O   0  0  0  0  0  0  0  0  0  0  0  0
   39.7300   39.1600   28.3960 C   0  0  0  0  0  0  0  0  0  0  0  0
   37.8360   41.7470   26.4760 O   0  0  0  0  0  0  0  0  0  0  0  0
   35.2810   39.1770   29.3870 C   0  0  0  0  0  0  0  0  0  0  0  0
   37.6500   40.4540   30.8610 O   0  0  0  0  0  0  0  0  0  0  0  0
   37.6210   39.9680   29.7020 C   0  0  0  0  0  0  0  0  0  0  0  0
  1  7  1  0
  1  2  1  0
  1  4  1  0
  2  4  1  0
  3  6  1  0
  4  6  1  0
  4 10  1  0
  5  8  1  0
  5 10  1  0
 10  9  2  0
M  END
$$$$

     RDKit          3D

 14 13  0  0  0  0  0  0  0  0999 V2000
   36.5280   37.6930   31.2980 C   0  0  0  0  0  0  0  0  0  0  0  0
   32.1680   37.5360   31.7870 C   0  0  0  0  0  0  0  0  0  0  0  0
   33.4800   37.0460   31.1040 C   0  0  0  0  0  0  0  0  0  0  0  0
   39.5760   40.1850   29.8210 C   0  0  0  0  0  0  0  0  0  0  0  0
   35.5710   37.2250   31.1370 C   0  0  0  0  0  0  0  0  0  0  0  0
   39.7120   38.4760   29.9110 C   0  0  0  0  0  0  0  0  0  0  0  0
   39.6070   38.0440   28.6490 O   0  0  0  0  0  0  0  0  0  0  0  0
   38.4080   38.3000   30.5340 N   0  0  0  0  0  0  0  0  0  0  0  0
   33.5900   35.8110   30.9180 O   0  0  0  0  0  0  0  0  0  0  0  0
   40.3770   40.8890   28.8570 O   0  0  0  0  0  0  0  0  0  0  0  0
   37.5810   37.5980   30.2980 C   0  0  0  0  0  0  0  0  0  0  0  0
   39.7660   38.4220   27.3990 C   0  0  0  0  0  0  0  0  0  0  0  0
   37.5840   36.8680   29.3540 O   0  0  0  0  0  0  0  0  0  0  0  0
   34.3990   38.0310   30.6270 C   0  0  0  0  0  0  0  0  0  0  0  0
  3  2  1  0
  5  1  1  0
  6  4  1  0
  6  8  1  0
  7  6  1  0
  9  3  2  0
 10  4  1  0
 11  8  1  0
 11  1  1  0
 12  7  1  0
 13 11  2  0
 14  3  1  0
 14  5  1  0
M  END
$$$$

     RDKit          3D

 21 22  0  0  0  0  0  0  0  0999 V2000
   31.4890   36.2590   28.9730 C   0  0  0  0  0  0  0  0  0  0  0  0
   33.9090   37.3520   29.8430 C   0  0  0  0  0  0  0  0  0  0  0  0
   38.5080   39.3030   28.1690 C   0  0  0  0  0  0  0  0  0  0  0  0
   40.5440   40.5080   27.8910 N   0  0  0  0  0  0  0  0  0  0  0  0
   35.8640   38.5080   29.2840 N   0  0  0  0  0  0  0  0  0  0  0  0
   35.0270   37.9980   30.2940 O   0  0  0  0  0  0  0  0  0  0  0  0
   37.6910   40.3280   27.5410 C   0  0  0  0  0  0  0  0  0  0  0  0
   39.8860   39.5220   28.3230 C   0  0  0  0  0  0  0  0  0  0  0  0
   32.2800   37.1260   28.1210 C   0  0  0  0  0  0  0  0  0  0  0  0
   36.1670   40.2990   27.4820 C   0  0  0  0  0  0  0  0  0  0  0  0
   35.5400   39.5860   28.6140 C   0  0  0  0  0  0  0  0  0  0  0  0
   38.1110   37.8880   28.3810 C   0  0  0  0  0  0  0  0  0  0  0  0
   30.3030   35.6680   28.3020 C   0  0  0  0  0  0  0  0  0  0  0  0
   42.2840   41.6570   26.7040 C   0  0  0  0  0  0  0  0  0  0  0  0
   33.5330   37.4760   28.5380 C   0  0  0  0  0  0  0  0  0  0  0  0
   41.6230   41.4420   28.0540 C   0  0  0  0  0  0  0  0  0  0  0  0
   40.8670   42.6930   28.4770 C   0  0  0  0  0  0  0  0  0  0  0  0
   31.9250   36.0190   30.2410 C   0  0  0  0  0  0  0  0  0  0  0  0
   40.5750   38.8040   29.2150 O   0  0  0  0  0  0  0  0  0  0  0  0
   37.0290   37.6950   29.3090 C   0  0  0  0  0  0  0  0  0  0  0  0
   33.1400   36.5490   30.6290 C   0  0  0  0  0  0  0  0  0  0  0  0
  1 18  1  0
  2  6  1  0
  2 21  1  0
  3  8  1  0
  3 12  1  0
  4 16  1  0
  4  8  1  0
  5 20  1  0
  5  6  1  0
  7  3  1  0
  8 19  2  0
  9 15  1  0
  9  1  2  0
 10  7  1  0
 10 11  1  0
 11  5  1  0
 12 20  1  0
 13  1  1  0
 14 16  1  0
 15  2  2  0
 16 17  1  0
 18 21  2  0
M  END
$$$$

     RDKit          3D

  8  9  0  0  0  0  0  0  0  0999 V2000
   42.4120   39.7910   28.8250 S   0  0  0  0  0  0  0  0  0  0  0  0
   40.3690   40.7260   26.8880 C   0  0  0  0  0  0  0  0  0  0  0  0
   38.5000   42.0230   28.2190 N   0  0  0  0  0  0  0  0  0  0  0  0
   38.0920   41.5860   27.1750 C   0  0  0  0  0  0  0  0  0  0  0  0
   39.5900   39.5080   27.3900 C   0  0  0  0  0  0  0  0  0  0  0  0
   39.7320   41.9230   28.9750 N   0  0  0  0  0  0  0  0  0  0  0  0
   38.9880   40.6140   27.0520 C   0  0  0  0  0  0  0  0  0  0  0  0
   41.1340   39.5780   27.3540 C   0  0  0  0  0  0  0  0  0  0  0  0
  2  7  1  0
  2  8  1  0
  2  5  1  0
  3  6  1  0
  4  3  1  0
  7  4  1  0
  7  5  1  0
  8  5  1  0
  8  1  1  0
M  END
$$$$

     RDKit          3D

 11 10  0  0  0  0  0  0  0  0999 V2000
   39.4690   39.9610   25.9830 C   0  0  0  0  0  0  0  0  0  0  0  0
   39.4150   39.8480   27.4950 C   0  0  0  0  0  0  0  0  0  0  0  0
   39.9350   38.5610   27.9430 O   0  0  0  0  0  0  0  0  0  0  0  0
   38.8330   42.8690   27.5870 O   0  0  0  0  0  0  0  0  0  0  0  0
   41.0730   42.7940   27.0410 O   0  0  0  0  0  0  0  0  0  0  0  0
   39.8720   42.3190   27.6080 C   0  0  0  0  0  0  0  0  0  0  0  0
   38.2490   39.2240   25.4400 C   0  0  0  0  0  0  0  0  0  0  0  0
   38.0790   39.9770   27.7930 F   0  0  0  0  0  0  0  0  0  0  0  0
   40.4170   41.4920   29.3440 O   0  0  0  0  0  0  0  0  0  0  0  0
   38.7720   41.8130   25.2540 Cl  0  0  0  0  0  0  0  0  0  0  0  0
   40.1870   40.9520   28.1610 C   0  0  0  0  0  0  0  0  0  0  0  0
  1  7  1  0
  1  2  1  0
  2  8  1  0
  2  3  1  0
  2 11  1  0
  4  6  1  0
  5  6  2  0
  6 11  1  0
 10  1  1  0
 11  9  1  0
M  END
$$$$

     RDKit          3D

 17 18  0  0  0  0  0  0  0  0999 V2000
   36.8710   39.1920   32.6650 O   0  0  0  0  0  0  0  0  0  0  0  0
   37.8110   37.6520   31.1190 C   0  0  0  0  0  0  0  0  0  0  0  0
   38.8880   37.6250   30.0160 C   0  0  0  0  0  0  0  0  0  0  0  0
   37.2330   35.5130   32.6060 C   0  0  0  0  0  0  0  0  0  0  0  0
   38.0230   36.7450   32.3470 C   0  0  0  0  0  0  0  0  0  0  0  0
   38.5660   40.0290   29.2090 C   0  0  0  0  0  0  0  0  0  0  0  0
   37.8280   39.0770   31.6670 C   0  0  0  0  0  0  0  0  0  0  0  0
   37.8540   40.1650   30.5730 C   0  0  0  0  0  0  0  0  0  0  0  0
   39.9700   38.3810   28.0990 O   0  0  0  0  0  0  0  0  0  0  0  0
   39.0660   43.7070   30.8950 O   0  0  0  0  0  0  0  0  0  0  0  0
   38.2050   35.3770   31.9270 C   0  0  0  0  0  0  0  0  0  0  0  0
   37.8510   40.3920   27.9610 C   0  0  0  0  0  0  0  0  0  0  0  0
   38.7110   42.7920   29.0300 O   0  0  0  0  0  0  0  0  0  0  0  0
   38.7380   42.5570   30.2340 C   0  0  0  0  0  0  0  0  0  0  0  0
   39.0910   38.7020   29.1040 C   0  0  0  0  0  0  0  0  0  0  0  0
   38.4110   41.4560   31.1570 C   0  0  0  0  0  0  0  0  0  0  0  0
   38.1660   41.7450   32.5430 O   0  0  0  0  0  0  0  0  0  0  0  0
  2  7  1  0
  2  5  1  0
  3  2  1  0
  5  4  1  0
  6 12  1  0
  6  8  1  0
  7  1  1  0
  8 16  1  0
  8  7  1  0
  9 15  1  0
 11  5  1  0
 11  4  1  0
 13 14  2  0
 14 10  1  0
 14 16  1  0
 15  6  1  0
 15  3  2  0
 16 17  1  0
M  END
$$$$

     RDKit          3D

 15 17  0  0  0  0  0  0  0  0999 V2000
   38.6520   40.0060   26.1960 O   0  0  0  0  0  0  0  0  0  0  0  0
   38.3250   42.7200   28.0600 C   0  0  0  0  0  0  0  0  0  0  0  0
   40.3430   38.2360   26.5470 O   0  0  0  0  0  0  0  0  0  0  0  0
   36.6070   41.2850   26.7240 C   0  0  0  0  0  0  0  0  0  0  0  0
   39.5130   43.1770   30.0810 O   0  0  0  0  0  0  0  0  0  0  0  0
   38.8310   44.0040   28.6590 C   0  0  0  0  0  0  0  0  0  0  0  0
   37.8860   39.8640   28.1420 O   0  0  0  0  0  0  0  0  0  0  0  0
   38.4450   42.9030   29.4110 C   0  0  0  0  0  0  0  0  0  0  0  0
   37.6810   42.1010   30.1900 O   0  0  0  0  0  0  0  0  0  0  0  0
   37.3630   42.4380   27.3090 C   0  0  0  0  0  0  0  0  0  0  0  0
   37.4380   40.0740   26.7700 C   0  0  0  0  0  0  0  0  0  0  0  0
   39.5950   39.1250   26.8320 C   0  0  0  0  0  0  0  0  0  0  0  0
   39.3680   39.6890   28.1610 C   0  0  0  0  0  0  0  0  0  0  0  0
   35.2410   40.9930   27.3280 C   0  0  0  0  0  0  0  0  0  0  0  0
   40.4910   40.5370   28.5020 O   0  0  0  0  0  0  0  0  0  0  0  0
  1 11  1  0
  1 12  1  0
  2 10  1  0
  2  6  1  0
  2  8  1  0
  3 12  2  0
  4 10  1  0
  4 14  1  0
  6  8  1  0
  6  5  1  0
  7 13  1  0
  8  5  1  0
  8  9  1  0
 11  4  1  0
 11  7  1  0
 12 13  1  0
 13 15  1  0
M  END
$$$$

     RDKit          3D

 23 24  0  0  0  0  0  0  0  0999 V2000
   37.7030   39.5830   28.9010 C   0  0  0  0  0  0  0  0  0  0  0  0
   38.7990   41.8410   31.0780 N   0  0  0  0  0  0  0  0  0  0  0  0
   41.0240   40.3440   27.5710 C   0  0  0  0  0  0  0  0  0  0  0  0
   36.8570   38.6860   28.6240 O   0  0  0  0  0  0  0  0  0  0  0  0
   32.7650   36.3570   29.6690 C   0  0  0  0  0  0  0  0  0  0  0  0
   35.2210   36.5440   30.3130 C   0  0  0  0  0  0  0  0  0  0  0  0
   34.4850   34.1590   29.8910 C   0  0  0  0  0  0  0  0  0  0  0  0
   37.4890   37.5700   30.8400 C   0  0  0  0  0  0  0  0  0  0  0  0
   37.6410   38.9820   31.0700 C   0  0  0  0  0  0  0  0  0  0  0  0
   36.0910   37.1500   31.3800 C   0  0  0  0  0  0  0  0  0  0  0  0
   37.6290   39.6500   32.2760 O   0  0  0  0  0  0  0  0  0  0  0  0
   38.6850   39.8280   27.9090 O   0  0  0  0  0  0  0  0  0  0  0  0
   41.3950   41.6150   26.6910 S   0  0  0  0  0  0  0  0  0  0  0  0
   38.8410   40.9760   30.1910 C   0  0  0  0  0  0  0  0  0  0  0  0
   35.8270   37.3600   32.5830 O   0  0  0  0  0  0  0  0  0  0  0  0
   33.0150   34.8690   29.8950 C   0  0  0  0  0  0  0  0  0  0  0  0
   39.8160   40.4480   28.2610 C   0  0  0  0  0  0  0  0  0  0  0  0
   41.0040   42.9930   27.4470 C   0  0  0  0  0  0  0  0  0  0  0  0
   35.9470   34.6830   31.9780 C   0  0  0  0  0  0  0  0  0  0  0  0
   33.9410   37.3090   29.9750 C   0  0  0  0  0  0  0  0  0  0  0  0
   39.6380   41.3440   29.1970 O   0  0  0  0  0  0  0  0  0  0  0  0
   38.0760   39.8360   30.1420 C   0  0  0  0  0  0  0  0  0  0  0  0
   35.4290   35.0420   30.5780 C   0  0  0  0  0  0  0  0  0  0  0  0
  1 22  1  0
  4  1  2  0
  5 16  1  0
  5 20  1  0
  6 23  1  0
  6 10  1  0
  7 16  1  0
  7 23  1  0
  8  9  1  0
  8 10  1  0
  9 11  1  0
 10 15  2  0
 12 17  1  0
 12  1  1  0
 13 18  1  0
 13  3  1  0
 14  2  2  0
 17  3  1  0
 17 21  1  0
 20  6  1  0
 21 14  1  0
 22 14  1  0
 22  9  1  0
 23 19  1  0
M  END
$$$$

     RDKit          3D

  9  9  0  0  0  0  0  0  0  0999 V2000
   35.3810   37.3340   30.4910 C   0  0  0  0  0  0  0  0  0  0  0  0
   39.3530   38.3500   27.8390 O   0  0  0  0  0  0  0  0  0  0  0  0
   35.2300   39.0710   28.7640 C   0  0  0  0  0  0  0  0  0  0  0  0
   34.6310   38.2630   29.6520 C   0  0  0  0  0  0  0  0  0  0  0  0
   36.7980   37.2490   30.2500 C   0  0  0  0  0  0  0  0  0  0  0  0
   37.4090   38.0620   29.2450 C   0  0  0  0  0  0  0  0  0  0  0  0
   38.9030   37.8770   28.9880 C   0  0  0  0  0  0  0  0  0  0  0  0
   39.6730   37.7310   29.9680 O   0  0  0  0  0  0  0  0  0  0  0  0
   36.6310   39.0580   28.5780 C   0  0  0  0  0  0  0  0  0  0  0  0
  2  7  2  0
  3  4  1  0
  4  1  2  0
  5  1  1  0
  6  5  2  0
  7  6  1  0
  7  8  1  0
  9  3  2  0
  9  6  1  0
M  END
$$$$

     RDKit          3D

 11 11  0  0  0  0  0  0  0  0999 V2000
   37.9400   39.0190   28.5720 C   0  0  0  0  0  0  0  0  0  0  0  0
   40.2280   38.5500   27.8620 C   0  0  0  0  0  0  0  0  0  0  0  0
   39.6250   39.9630   29.7790 O   0  0  0  0  0  0  0  0  0  0  0  0
   37.0270   40.0100   28.8790 C   0  0  0  0  0  0  0  0  0  0  0  0
   36.5390   40.5110   31.1130 O   0  0  0  0  0  0  0  0  0  0  0  0
   35.7360   40.0560   28.6860 O   0  0  0  0  0  0  0  0  0  0  0  0
   38.6770   40.1170   27.0750 O   0  0  0  0  0  0  0  0  0  0  0  0
   37.4540   40.8210   30.1050 C   0  0  0  0  0  0  0  0  0  0  0  0
   39.3220   41.6070   31.5330 O   0  0  0  0  0  0  0  0  0  0  0  0
   38.8520   40.8290   30.4060 C   0  0  0  0  0  0  0  0  0  0  0  0
   39.2610   39.6890   28.3290 C   0  0  0  0  0  0  0  0  0  0  0  0
  1  4  1  0
  3 10  1  0
  4  6  1  0
  4  8  1  0
  7 11  1  0
  8 10  1  0
  8  5  1  0
 10  9  2  0
 11  2  1  0
 11  1  1  0
 11  3  1  0
M  END
$$$$

     RDKit          3D

 17 19  0  0  0  0  0  0  0  0999 V2000
   32.6490   35.8890   28.6460 Cl  0  0  0  0  0  0  0  0  0  0  0  0
   34.1230   36.7510   29.2810 C   0  0  0  0  0  0  0  0  0  0  0  0
   38.4720   38.2310   30.1440 C   0  0  0  0  0  0  0  0  0  0  0  0
   36.9980   37.6150   30.1920 C   0  0  0  0  0  0  0  0  0  0  0  0
   35.1810   38.6510   29.4100 C   0  0  0  0  0  0  0  0  0  0  0  0
   35.1020   36.0950   29.9730 C   0  0  0  0  0  0  0  0  0  0  0  0
   40.8290   39.0080   29.7010 C   0  0  0  0  0  0  0  0  0  0  0  0
   39.8240   38.0480   29.2640 C   0  0  0  0  0  0  0  0  0  0  0  0
   39.0230   40.7090   29.4670 C   0  0  0  0  0  0  0  0  0  0  0  0
   34.0730   38.1330   29.1250 C   0  0  0  0  0  0  0  0  0  0  0  0
   36.0570   40.4410   28.8080 N   0  0  0  0  0  0  0  0  0  0  0  0
   38.4080   42.0590   29.1900 C   0  0  0  0  0  0  0  0  0  0  0  0
   36.2720   38.5710   29.8200 N   0  0  0  0  0  0  0  0  0  0  0  0
   36.7790   39.6670   29.4470 N   0  0  0  0  0  0  0  0  0  0  0  0
   36.4090   36.3170   30.3530 C   0  0  0  0  0  0  0  0  0  0  0  0
   38.0760   39.5930   29.7050 C   0  0  0  0  0  0  0  0  0  0  0  0
   40.4000   40.4360   29.4650 C   0  0  0  0  0  0  0  0  0  0  0  0
  2  1  1  0
  2  6  1  0
  3  8  1  0
  3  4  1  0
  4 15  2  0
  5 13  1  0
  6 15  1  0
  8  7  1  0
  9 16  2  0
 10  2  1  0
 10  5  1  0
 11 14  1  0
 12  9  1  0
 13  4  1  0
 14 16  1  0
 14 13  1  0
 16  3  1  0
 17  9  1  0
 17  7  1  0
M  END
$$$$

     RDKit          3D

  9  9  0  0  0  0  0  0  0  0999 V2000
   37.1270   41.8840   26.9440 O   0  0  0  0  0  0  0  0  0  0  0  0
   37.9140   40.8860   27.5650 C   0  0  0  0  0  0  0  0  0  0  0  0
   39.3240   41.3230   27.7260 C   0  0  0  0  0  0  0  0  0  0  0  0
   40.2290   39.0910   27.1590 C   0  0  0  0  0  0  0  0  0  0  0  0
   37.8850   39.6940   26.7350 C   0  0  0  0  0  0  0  0  0  0  0  0
   41.6020   40.9020   28.0230 O   0  0  0  0  0  0  0  0  0  0  0  0
   38.7630   38.6070   27.3180 C   0  0  0  0  0  0  0  0  0  0  0  0
   40.3450   40.2610   28.1330 C   0  0  0  0  0  0  0  0  0  0  0  0
   39.6530   42.5130   27.4220 O   0  0  0  0  0  0  0  0  0  0  0  0
  2  1  1  0
  2  3  1  0
  3  8  1  0
  4  7  1  0
  4  8  1  0
  5  7  1  0
  5  2  1  0
  8  6  1  0
  9  3  2  0
M  END
$$$$

     RDKit          3D

  9  8  0  0  0  0  0  0  0  0999 V2000
   36.2620   41.7040   26.8790 O   0  0  0  0  0  0  0  0  0  0  0  0
   40.1770   38.9920   26.9780 F   0  0  0  0  0  0  0  0  0  0  0  0
   38.0850   40.3690   26.6330 C   0  0  0  0  0  0  0  0  0  0  0  0
   37.8440   42.2090   28.2070 O   0  0  0  0  0  0  0  0  0  0  0  0
   39.9410   40.9060   29.2060 O   0  0  0  0  0  0  0  0  0  0  0  0
   37.3610   39.3830   26.1210 F   0  0  0  0  0  0  0  0  0  0  0  0
   39.4400   40.1220   27.0100 C   0  0  0  0  0  0  0  0  0  0  0  0
   39.9430   40.8930   28.1980 C   0  0  0  0  0  0  0  0  0  0  0  0
   37.4060   41.4990   27.3400 C   0  0  0  0  0  0  0  0  0  0  0  0
  1  9  2  0
  3  6  1  0
  3  7  1  0
  3  9  1  0
  7  2  1  0
  7  8  1  0
  8  5  2  0
  9  4  1  0
M  END
$$$$

     RDKit          3D

 23 25  0  0  0  0  0  0  0  0999 V2000
   36.8310   40.2480   30.3220 C   0  0  0  0  0  0  0  0  0  0  0  0
   39.7150   38.4150   28.9980 N   0  0  0  0  0  0  0  0  0  0  0  0
   39.2860   42.9850   30.3960 O   0  0  0  0  0  0  0  0  0  0  0  0
   39.0230   39.4410   29.5470 C   0  0  0  0  0  0  0  0  0  0  0  0
   35.0860   36.2630   30.7640 C   0  0  0  0  0  0  0  0  0  0  0  0
   33.0400   38.0290   27.6600 C   0  0  0  0  0  0  0  0  0  0  0  0
   34.2780   33.5250   32.5850 N   0  0  0  0  0  0  0  0  0  0  0  0
   37.1320   37.7970   29.8730 N   0  0  0  0  0  0  0  0  0  0  0  0
   39.3610   37.1460   29.2770 C   0  0  0  0  0  0  0  0  0  0  0  0
   33.6730   36.4090   31.0560 C   0  0  0  0  0  0  0  0  0  0  0  0
   32.9260   36.9220   29.9450 C   0  0  0  0  0  0  0  0  0  0  0  0
   36.5500   32.9870   31.8700 O   0  0  0  0  0  0  0  0  0  0  0  0
   33.6090   37.4790   28.9220 C   0  0  0  0  0  0  0  0  0  0  0  0
   34.8950   37.6910   28.9630 O   0  0  0  0  0  0  0  0  0  0  0  0
   35.8730   35.2910   31.0900 C   0  0  0  0  0  0  0  0  0  0  0  0
   35.6900   37.1640   29.9410 C   0  0  0  0  0  0  0  0  0  0  0  0
   38.8190   41.7500   30.3810 C   0  0  0  0  0  0  0  0  0  0  0  0
   39.5940   40.7290   29.6960 C   0  0  0  0  0  0  0  0  0  0  0  0
   38.1390   36.9060   29.8400 C   0  0  0  0  0  0  0  0  0  0  0  0
   36.1670   35.1910   33.1630 O   0  0  0  0  0  0  0  0  0  0  0  0
   37.4570   41.5710   30.5330 C   0  0  0  0  0  0  0  0  0  0  0  0
   35.7510   34.1650   32.2840 S   0  0  0  0  0  0  0  0  0  0  0  0
   37.6410   39.2070   29.8400 C   0  0  0  0  0  0  0  0  0  0  0  0
  1 21  1  0
  2  9  1  0
  2  4  2  0
  4 18  1  0
  4 23  1  0
  5 10  1  0
  5 15  1  0
  6 13  1  0
  9 19  2  0
 11 10  1  0
 12 22  2  0
 13 14  1  0
 13 11  2  0
 14 16  1  0
 15 22  1  0
 16  8  1  0
 16  5  1  0
 17  3  1  0
 17 21  2  0
 18 17  1  0
 19  8  1  0
 22  7  1  0
 22 20  2  0
 23  8  1  0
 23  1  2  0
M  END
$$$$

     RDKit          3D

 10 10  0  0  0  0  0  0  0  0999 V2000
   38.6080   42.2100   28.6120 C   0  0  0  0  0  0  0  0  0  0  0  0
   36.7750   40.5200   30.6350 C   0  0  0  0  0  0  0  0  0  0  0  0
   39.0120   39.8450   27.7620 C   0  0  0  0  0  0  0  0  0  0  0  0
   38.0820   40.7900   28.5040 C   0  0  0  0  0  0  0  0  0  0  0  0
   39.4980   37.5510   28.0060 O   0  0  0  0  0  0  0  0  0  0  0  0
   37.7180   40.0590   29.7720 C   0  0  0  0  0  0  0  0  0  0  0  0
   36.8340   40.9700   27.6660 C   0  0  0  0  0  0  0  0  0  0  0  0
   39.2890   38.6490   28.6820 C   0  0  0  0  0  0  0  0  0  0  0  0
   35.8850   39.5010   30.9360 O   0  0  0  0  0  0  0  0  0  0  0  0
   38.1060   38.6110   29.6380 C   0  0  0  0  0  0  0  0  0  0  0  0
  2  9  1  0
  3  4  1  0
  3  8  1  0
  4  1  1  0
  4  6  1  0
  6  2  1  0
  7  4  1  0
  8  5  1  0
  8 10  1  0
 10  6  1  0
M  END
$$$$

     RDKit          3D

 29 30  0  0  0  0  0  0  0  0999 V2000
   38.3720   40.6200   25.9860 C   0  0  0  0  0  0  0  0  0  0  0  0
   39.5770   40.0130   28.8280 C   0  0  0  0  0  0  0  0  0  0  0  0
   38.4940   33.6830   34.3540 C   0  0  0  0  0  0  0  0  0  0  0  0
   37.7880   42.6990   22.8310 C   0  0  0  0  0  0  0  0  0  0  0  0
   36.6550   32.9810   32.7650 C   0  0  0  0  0  0  0  0  0  0  0  0
   36.9170   37.3530   32.0960 C   0  0  0  0  0  0  0  0  0  0  0  0
   39.2830   39.4690   26.3510 C   0  0  0  0  0  0  0  0  0  0  0  0
   37.2680   30.5630   36.6770 S   0  0  0  0  0  0  0  0  0  0  0  0
   37.6400   36.2280   32.2140 C   0  0  0  0  0  0  0  0  0  0  0  0
   38.5630   39.2500   28.0150 N   0  0  0  0  0  0  0  0  0  0  0  0
   36.6720   42.7080   25.2230 C   0  0  0  0  0  0  0  0  0  0  0  0
   39.3220   39.5570   30.2690 C   0  0  0  0  0  0  0  0  0  0  0  0
   36.4320   42.0150   26.3830 C   0  0  0  0  0  0  0  0  0  0  0  0
   36.5020   29.3870   36.2700 O   0  0  0  0  0  0  0  0  0  0  0  0
   36.4050   41.7540   20.9810 C   0  0  0  0  0  0  0  0  0  0  0  0
   36.1450   41.9610   22.4660 C   0  0  0  0  0  0  0  0  0  0  0  0
   38.6160   41.2940   24.7890 C   0  0  0  0  0  0  0  0  0  0  0  0
   36.1980   31.0490   37.4160 O   0  0  0  0  0  0  0  0  0  0  0  0
   37.7360   31.7380   35.6840 N   0  0  0  0  0  0  0  0  0  0  0  0
   37.8470   35.0620   32.4500 N   0  0  0  0  0  0  0  0  0  0  0  0
   37.4330   39.1020   28.8560 C   0  0  0  0  0  0  0  0  0  0  0  0
   37.9890   38.7380   30.2240 C   0  0  0  0  0  0  0  0  0  0  0  0
   37.9260   33.8150   32.9780 C   0  0  0  0  0  0  0  0  0  0  0  0
   38.4360   32.2410   34.8230 C   0  0  0  0  0  0  0  0  0  0  0  0
   38.6420   29.9330   37.0380 N   0  0  0  0  0  0  0  0  0  0  0  0
   36.6580   38.1820   30.8470 C   0  0  0  0  0  0  0  0  0  0  0  0
   37.7630   42.3100   24.2940 C   0  0  0  0  0  0  0  0  0  0  0  0
   37.3090   40.9890   26.7660 C   0  0  0  0  0  0  0  0  0  0  0  0
   35.2860   43.1110   22.6220 O   0  0  0  0  0  0  0  0  0  0  0  0
  1  7  1  0
  1 28  1  0
  2 12  1  0
  3 24  1  0
  4 27  1  0
  6  9  1  0
  7 10  1  0
  8 25  1  0
  8 18  2  0
  9 20  1  0
 10  2  1  0
 10 21  1  0
 11 13  1  0
 13 28  2  0
 14  8  2  0
 16 15  1  0
 16 29  1  0
 16  4  1  0
 17  1  2  0
 19  8  1  0
 20 23  1  0
 21 22  1  0
 22 12  1  0
 22 26  1  0
 23  5  1  0
 23  3  1  0
 24 19  2  3
 26  6  1  0
 27 17  1  0
 27 11  2  0
M  END
$$$$

     RDKit          3D

 25 27  0  0  0  0  0  0  0  0999 V2000
   32.9780   35.2720   33.9930 C   0  0  0  0  0  0  0  0  0  0  0  0
   39.7950   39.0200   29.3920 C   0  0  0  0  0  0  0  0  0  0  0  0
   32.6940   34.0650   32.0920 O   0  0  0  0  0  0  0  0  0  0  0  0
   33.7280   34.5680   32.8850 C   0  0  0  0  0  0  0  0  0  0  0  0
   41.8860   44.2020   30.3990 C   0  0  0  0  0  0  0  0  0  0  0  0
   37.0700   40.9550   30.0740 C   0  0  0  0  0  0  0  0  0  0  0  0
   34.8320   35.5050   32.4250 C   0  0  0  0  0  0  0  0  0  0  0  0
   38.3940   38.7170   29.8130 C   0  0  0  0  0  0  0  0  0  0  0  0
   37.9210   36.4390   30.8720 C   0  0  0  0  0  0  0  0  0  0  0  0
   36.5200   33.8830   32.2850 C   0  0  0  0  0  0  0  0  0  0  0  0
   39.3160   41.7110   29.8020 C   0  0  0  0  0  0  0  0  0  0  0  0
   35.6380   32.9620   32.8140 C   0  0  0  0  0  0  0  0  0  0  0  0
   38.2670   37.2530   29.6960 C   0  0  0  0  0  0  0  0  0  0  0  0
   40.1000   40.5070   29.3720 C   0  0  0  0  0  0  0  0  0  0  0  0
   31.1470   33.1040   33.7990 C   0  0  0  0  0  0  0  0  0  0  0  0
   32.0380   34.1580   34.4270 C   0  0  0  0  0  0  0  0  0  0  0  0
   31.9700   35.4530   34.9320 O   0  0  0  0  0  0  0  0  0  0  0  0
   37.4860   39.6820   29.8010 C   0  0  0  0  0  0  0  0  0  0  0  0
   40.1430   42.5610   30.5270 O   0  0  0  0  0  0  0  0  0  0  0  0
   36.1010   35.1650   32.0670 C   0  0  0  0  0  0  0  0  0  0  0  0
   36.8100   36.2930   31.4150 C   0  0  0  0  0  0  0  0  0  0  0  0
   37.8840   42.2220   29.8590 C   0  0  0  0  0  0  0  0  0  0  0  0
   34.4190   33.2840   33.2930 C   0  0  0  0  0  0  0  0  0  0  0  0
   41.5340   40.7140   29.4980 C   0  0  0  0  0  0  0  0  0  0  0  0
   40.6420   43.5870   30.9390 N   0  0  0  0  0  0  0  0  0  0  0  0
  1 16  1  0
  1 17  1  0
  2  8  1  0
  4  3  1  0
  4 23  1  0
  4  1  1  0
  5 25  1  0
  7  4  1  0
  8 13  1  0
  9 21  1  0
 10 12  2  0
 11 22  1  0
 11 19  1  0
 12 23  1  0
 13  9  1  0
 14  2  1  0
 14 24  1  0
 14 11  1  0
 16 15  1  0
 16 17  1  0
 18  8  1  0
 18  6  1  0
 19 25  1  0
 20 10  1  0
 20  7  1  0
 21 20  2  3
 22  6  1  0
M  END
$$$$

     RDKit          3D

  9  8  0  0  0  0  0  0  0  0999 V2000
   39.0430   39.5910   28.4200 C   0  0  0  0  0  0  0  0  0  0  0  0
   35.9950   39.4420   30.3470 C   0  0  0  0  0  0  0  0  0  0  0  0
   37.8530   41.2040   29.9760 C   0  0  0  0  0  0  0  0  0  0  0  0
   35.7630   38.9680   28.9100 C   0  0  0  0  0  0  0  0  0  0  0  0
   38.5710   39.8670   29.8250 C   0  0  0  0  0  0  0  0  0  0  0  0
   38.2840   42.1720   28.8170 C   0  0  0  0  0  0  0  0  0  0  0  0
   36.3490   40.9180   30.2210 C   0  0  0  0  0  0  0  0  0  0  0  0
   38.3900   38.5640   27.7500 O   0  0  0  0  0  0  0  0  0  0  0  0
   40.5020   39.5600   28.6160 N   0  0  0  0  0  0  0  0  0  0  0  0
  1  8  1  0
  1  9  1  0
  1  5  1  0
  3  6  1  0
  3  7  1  0
  4  2  1  0
  5  3  1  0
  7  2  1  0
M  END
$$$$

     RDKit          3D

 21 22  0  0  0  0  0  0  0  0999 V2000
   37.3700   38.6260   29.9310 C   0  0  0  0  0  0  0  0  0  0  0  0
   39.4850   39.5380   30.6170 C   0  0  0  0  0  0  0  0  0  0  0  0
   38.0400   39.5990   30.3150 N   0  0  0  0  0  0  0  0  0  0  0  0
   39.4840   36.4720   31.0750 O   0  0  0  0  0  0  0  0  0  0  0  0
   35.0990   34.7850   30.8480 C   0  0  0  0  0  0  0  0  0  0  0  0
   37.2040   40.5830   30.6670 C   0  0  0  0  0  0  0  0  0  0  0  0
   34.5770   39.3890   26.6060 C   0  0  0  0  0  0  0  0  0  0  0  0
   34.7250   39.6040   28.0970 C   0  0  0  0  0  0  0  0  0  0  0  0
   36.0980   39.9850   28.5950 C   0  0  0  0  0  0  0  0  0  0  0  0
   36.5530   38.6810   28.9880 O   0  0  0  0  0  0  0  0  0  0  0  0
   36.8980   33.2010   30.4680 C   0  0  0  0  0  0  0  0  0  0  0  0
   37.3100   41.0240   31.8450 O   0  0  0  0  0  0  0  0  0  0  0  0
   37.6110   37.6950   30.7790 N   0  0  0  0  0  0  0  0  0  0  0  0
   37.8070   34.2440   30.5580 C   0  0  0  0  0  0  0  0  0  0  0  0
   37.3350   35.5100   30.8070 C   0  0  0  0  0  0  0  0  0  0  0  0
   36.0150   35.8130   30.9930 C   0  0  0  0  0  0  0  0  0  0  0  0
   34.2410   40.6810   25.8660 C   0  0  0  0  0  0  0  0  0  0  0  0
   36.1470   40.8070   29.8030 C   0  0  0  0  0  0  0  0  0  0  0  0
   33.8000   38.2480   26.1680 C   0  0  0  0  0  0  0  0  0  0  0  0
   38.2560   36.6140   30.8550 C   0  0  0  0  0  0  0  0  0  0  0  0
   35.5370   33.4850   30.6020 C   0  0  0  0  0  0  0  0  0  0  0  0
  1  3  1  0
  1 13  1  0
  3  2  1  0
  3  6  1  0
  5 16  1  0
  6 12  2  0
  7  8  1  0
  9  8  1  0
  9 10  1  0
  9 18  1  0
 10  1  1  0
 11 14  2  0
 11 21  1  0
 13 20  1  0
 14 15  1  0
 15 20  1  0
 15 16  2  0
 17  7  1  0
 18  6  1  0
 19  7  1  0
 20  4  2  0
 21  5  2  0
M  END
$$$$

     RDKit          3D

 12 13  0  0  0  0  0  0  0  0999 V2000
   35.9970   36.9120   30.6770 C   0  0  0  0  0  0  0  0  0  0  0  0
   36.5560   39.8450   28.2590 C   0  0  0  0  0  0  0  0  0  0  0  0
   37.1960   39.0350   28.9850 C   0  0  0  0  0  0  0  0  0  0  0  0
   38.3190   37.0980   29.7220 C   0  0  0  0  0  0  0  0  0  0  0  0
   35.3560   38.0190   30.1580 N   0  0  0  0  0  0  0  0  0  0  0  0
   35.9450   38.9840   29.4470 C   0  0  0  0  0  0  0  0  0  0  0  0
   34.5130   40.1020   26.7440 C   0  0  0  0  0  0  0  0  0  0  0  0
   37.2890   36.5350   30.4660 C   0  0  0  0  0  0  0  0  0  0  0  0
   35.5470   40.2820   27.3860 C   0  0  0  0  0  0  0  0  0  0  0  0
   39.3840   36.3450   29.5040 F   0  0  0  0  0  0  0  0  0  0  0  0
   38.3540   38.3430   29.1290 C   0  0  0  0  0  0  0  0  0  0  0  0
   33.6990   40.8120   25.7180 C   0  0  0  0  0  0  0  0  0  0  0  0
  2  9  1  0
  2  3  1  0
  2  6  1  0
  3 11  1  0
  3  6  1  0
  4  8  1  0
  5  1  2  0
  6  5  1  0
  7  9  2  3
  8  1  1  0
 10  4  1  0
 11  4  2  0
 12  7  1  0
M  END
$$$$
