
     RDKit          3D

 11 12  0  0  0  0  0  0  0  0999 V2000
   44.4680   37.4280   31.1230 O   0  0  0  0  0  0  0  0  0  0  0  0
   45.7630   36.7810   31.2540 C   0  0  0  0  0  0  0  0  0  0  0  0
   42.3150   37.2790   30.0490 C   0  0  0  0  0  0  0  0  0  0  0  0
   43.3190   34.7390   32.5760 C   0  0  0  0  0  0  0  0  0  0  0  0
   45.4580   35.2930   31.1910 C   0  0  0  0  0  0  0  0  0  0  0  0
   43.1080   37.0230   31.3340 C   0  0  0  0  0  0  0  0  0  0  0  0
   44.1940   34.9590   30.4330 N   0  0  0  0  0  0  0  0  0  0  0  0
   42.7080   36.0410   33.1810 C   0  0  0  0  0  0  0  0  0  0  0  0
   43.0750   37.8810   28.9320 N   0  0  0  0  0  0  0  0  0  0  0  0
   44.3370   34.9620   31.6770 N   0  0  0  0  0  0  0  0  0  0  0  0
   42.5500   37.0420   32.5830 C   0  0  0  0  0  0  0  0  0  0  0  0
  1  2  1  0
  1  6  1  0
  4  8  1  0
  5  2  1  0
  5 10  1  0
  6  3  1  0
  6 11  1  0
  7  5  1  0
  7 10  1  0
  9  3  1  0
 10  4  1  0
 11  8  1  0
M  END
$$$$

     RDKit          3D

 12 12  0  0  0  0  0  0  0  0999 V2000
   40.8650   36.8430   31.9830 C   0  0  0  0  0  0  0  0  0  0  0  0
   42.4150   36.4210   31.6710 C   0  0  0  0  0  0  0  0  0  0  0  0
   39.9940   35.6700   32.1110 C   0  0  0  0  0  0  0  0  0  0  0  0
   40.7440   37.8540   32.4700 O   0  0  0  0  0  0  0  0  0  0  0  0
   43.4550   37.2500   32.4040 C   0  0  0  0  0  0  0  0  0  0  0  0
   43.4440   38.6120   31.9180 C   0  0  0  0  0  0  0  0  0  0  0  0
   42.3190   34.9450   32.2080 C   0  0  0  0  0  0  0  0  0  0  0  0
   43.8920   38.7040   30.6140 O   0  0  0  0  0  0  0  0  0  0  0  0
   44.1590   36.8600   33.3520 O   0  0  0  0  0  0  0  0  0  0  0  0
   43.6530   34.2100   31.9860 C   0  0  0  0  0  0  0  0  0  0  0  0
   41.9610   35.0000   33.6910 O   0  0  0  0  0  0  0  0  0  0  0  0
   40.9160   34.4320   31.7430 C   0  0  0  0  0  0  0  0  0  0  0  0
  1  3  1  0
  1  4  2  0
  2  1  1  0
  2  7  1  0
  2  5  1  0
  5  9  2  0
  6  5  1  0
  7 10  1  0
  7 11  1  0
  8  6  1  0
 12  3  1  0
 12  7  1  0
M  END
$$$$

     RDKit          3D

 11 11  0  0  0  0  0  0  0  0999 V2000
   43.0390   32.5700   36.3270 C   0  0  0  0  0  0  0  0  0  0  0  0
   41.1180   33.4840   34.5410 C   0  0  0  0  0  0  0  0  0  0  0  0
   41.7940   33.4650   35.9890 C   0  0  0  0  0  0  0  0  0  0  0  0
   42.3930   34.8420   36.5040 O   0  0  0  0  0  0  0  0  0  0  0  0
   43.7760   32.2610   35.1770 O   0  0  0  0  0  0  0  0  0  0  0  0
   39.7910   32.8050   34.5770 C   0  0  0  0  0  0  0  0  0  0  0  0
   40.8650   34.5740   33.6120 O   0  0  0  0  0  0  0  0  0  0  0  0
   42.0000   33.2280   33.3520 C   0  0  0  0  0  0  0  0  0  0  0  0
   40.7610   32.9380   36.7860 O   0  0  0  0  0  0  0  0  0  0  0  0
   38.8660   34.0070   34.7070 C   0  0  0  0  0  0  0  0  0  0  0  0
   39.5830   31.8910   33.4970 O   0  0  0  0  0  0  0  0  0  0  0  0
  2  6  1  0
  2  3  1  0
  3  1  1  0
  3  4  1  0
  3  9  1  0
  5  1  1  0
  6 10  1  0
  7  2  1  0
  8  7  1  0
  8  2  1  0
 11  6  1  0
M  END
$$$$

     RDKit          3D

  8  7  0  0  0  0  0  0  0  0999 V2000
   43.5170   35.6490   32.1060 C   0  0  0  0  0  0  0  0  0  0  0  0
   44.4390   37.4570   33.6220 C   0  0  0  0  0  0  0  0  0  0  0  0
   44.4360   36.6290   34.6620 O   0  0  0  0  0  0  0  0  0  0  0  0
   43.3610   35.3420   30.8750 N   0  0  0  0  0  0  0  0  0  0  0  0
   43.4780   37.1820   32.3550 C   0  0  0  0  0  0  0  0  0  0  0  0
   45.1540   38.6180   33.6650 O   0  0  0  0  0  0  0  0  0  0  0  0
   43.0060   37.8560   31.2720 O   0  0  0  0  0  0  0  0  0  0  0  0
   43.7890   34.8560   33.0090 O   0  0  0  0  0  0  0  0  0  0  0  0
  1  5  1  0
  1  8  2  0
  2  6  2  0
  2  3  1  0
  4  1  1  0
  5  7  1  0
  5  2  1  0
M  END
$$$$

     RDKit          3D

 18 18  0  0  0  0  0  0  0  0999 V2000
   42.4060   35.7480   31.8880 S   0  0  0  0  0  0  0  0  0  0  0  0
   34.4590   31.7190   33.3790 C   0  0  0  0  0  0  0  0  0  0  0  0
   36.4010   32.0080   34.9450 C   0  0  0  0  0  0  0  0  0  0  0  0
   42.6570   34.6660   33.1670 C   0  0  0  0  0  0  0  0  0  0  0  0
   44.1920   36.4080   32.9920 C   0  0  0  0  0  0  0  0  0  0  0  0
   35.2250   31.1210   34.5760 C   0  0  0  0  0  0  0  0  0  0  0  0
   36.9900   31.5840   36.2520 C   0  0  0  0  0  0  0  0  0  0  0  0
   34.3660   30.6190   35.4770 O   0  0  0  0  0  0  0  0  0  0  0  0
   38.2290   32.3590   36.6300 C   0  0  0  0  0  0  0  0  0  0  0  0
   43.9250   36.4750   31.7650 C   0  0  0  0  0  0  0  0  0  0  0  0
   41.6620   34.0020   34.1360 C   0  0  0  0  0  0  0  0  0  0  0  0
   44.5920   37.1700   30.5470 C   0  0  0  0  0  0  0  0  0  0  0  0
   40.3210   34.4960   34.6460 C   0  0  0  0  0  0  0  0  0  0  0  0
   45.3320   36.9890   33.8300 C   0  0  0  0  0  0  0  0  0  0  0  0
   39.4800   33.2350   34.7480 C   0  0  0  0  0  0  0  0  0  0  0  0
   38.4590   33.6110   35.7910 C   0  0  0  0  0  0  0  0  0  0  0  0
   43.6790   35.3590   33.9770 C   0  0  0  0  0  0  0  0  0  0  0  0
   44.2630   38.7070   30.4870 C   0  0  0  0  0  0  0  0  0  0  0  0
  1  4  1  0
  3  7  1  0
  4 17  1  0
  4 11  1  0
  5 14  1  0
  5 17  1  0
  6  2  1  0
  6  3  1  0
  6  8  1  0
  7  9  1  0
 10 12  1  0
 10  1  1  0
 10  5  1  0
 11 13  1  0
 13 15  1  0
 15 16  1  0
 16  9  1  0
 18 12  1  0
M  END
$$$$

     RDKit          3D

 14 15  0  0  0  0  0  0  0  0999 V2000
   42.9450   35.3350   37.1060 O   0  0  0  0  0  0  0  0  0  0  0  0
   41.0470   36.4080   37.1030 O   0  0  0  0  0  0  0  0  0  0  0  0
   39.2590   33.5330   33.8870 C   0  0  0  0  0  0  0  0  0  0  0  0
   37.4450   34.9380   33.0500 O   0  0  0  0  0  0  0  0  0  0  0  0
   40.8230   33.2120   33.6530 C   0  0  0  0  0  0  0  0  0  0  0  0
   41.7370   34.0540   34.6500 C   0  0  0  0  0  0  0  0  0  0  0  0
   39.6870   32.3480   33.0600 C   0  0  0  0  0  0  0  0  0  0  0  0
   41.6750   33.2310   32.4790 O   0  0  0  0  0  0  0  0  0  0  0  0
   39.4190   34.7090   34.8130 C   0  0  0  0  0  0  0  0  0  0  0  0
   37.2580   32.8050   32.7790 O   0  0  0  0  0  0  0  0  0  0  0  0
   41.6200   35.4040   36.7530 C   0  0  0  0  0  0  0  0  0  0  0  0
   42.6830   35.0850   34.1730 O   0  0  0  0  0  0  0  0  0  0  0  0
   40.7420   34.5150   35.6930 C   0  0  0  0  0  0  0  0  0  0  0  0
   37.8380   33.7880   33.2000 C   0  0  0  0  0  0  0  0  0  0  0  0
  3 14  1  0
  3  9  1  0
  4 14  1  0
  5  8  1  0
  5  3  1  0
  5  6  1  0
  6 12  1  0
  6 13  1  0
  7  5  1  0
  7  3  1  0
  9 13  1  0
 10 14  2  0
 11  2  2  0
 11  1  1  0
 13 11  1  0
M  END
$$$$

     RDKit          3D

 17 16  0  0  0  0  0  0  0  0999 V2000
   43.0920   33.3160   32.7680 O   0  0  0  0  0  0  0  0  0  0  0  0
   41.9200   33.7440   33.1460 C   0  0  0  0  0  0  0  0  0  0  0  0
   37.6010   31.5650   36.2400 N   0  0  0  0  0  0  0  0  0  0  0  0
   39.4190   33.6020   34.1580 O   0  0  0  0  0  0  0  0  0  0  0  0
   41.7140   33.8810   34.6570 C   0  0  0  0  0  0  0  0  0  0  0  0
   42.3770   36.6210   34.1830 C   0  0  0  0  0  0  0  0  0  0  0  0
   41.7290   35.5880   35.2120 S   0  0  0  0  0  0  0  0  0  0  0  0
   42.2250   35.3890   36.8080 C   0  0  0  0  0  0  0  0  0  0  0  0
   36.5170   31.8810   34.1300 C   0  0  0  0  0  0  0  0  0  0  0  0
   41.3090   34.4940   32.2110 O   0  0  0  0  0  0  0  0  0  0  0  0
   40.2710   33.5560   35.1930 C   0  0  0  0  0  0  0  0  0  0  0  0
   38.1550   33.4040   34.7990 C   0  0  0  0  0  0  0  0  0  0  0  0
   37.7640   32.0770   34.9660 C   0  0  0  0  0  0  0  0  0  0  0  0
   36.5870   30.8310   36.5850 C   0  0  0  0  0  0  0  0  0  0  0  0
   36.0200   29.8530   36.0650 N   0  0  0  0  0  0  0  0  0  0  0  0
   43.4770   34.6590   37.1530 C   0  0  0  0  0  0  0  0  0  0  0  0
   43.4630   34.1940   38.5100 N   0  0  0  0  0  0  0  0  0  0  0  0
  1  2  1  0
  2  5  1  0
  3 14  1  0
  4 12  1  0
  4 11  1  0
  5 11  1  0
  5  7  1  0
  7  6  1  0
  7  8  1  0
  8 16  1  0
 10  2  2  0
 12 13  1  0
 13  9  1  0
 13  3  1  0
 15 14  2  0
 16 17  1  0
M  END
$$$$

     RDKit          3D

 10 10  0  0  0  0  0  0  0  0999 V2000
   41.4810   33.4400   32.3570 O   0  0  0  0  0  0  0  0  0  0  0  0
   44.1770   35.6090   33.0210 O   0  0  0  0  0  0  0  0  0  0  0  0
   43.4710   36.1660   31.6610 C   0  0  0  0  0  0  0  0  0  0  0  0
   42.1030   35.7010   31.9000 C   0  0  0  0  0  0  0  0  0  0  0  0
   42.4300   34.2670   32.2550 C   0  0  0  0  0  0  0  0  0  0  0  0
   43.7970   37.5160   31.8080 C   0  0  0  0  0  0  0  0  0  0  0  0
   43.8450   38.8250   31.5210 O   0  0  0  0  0  0  0  0  0  0  0  0
   43.4180   34.5100   33.3780 C   0  0  0  0  0  0  0  0  0  0  0  0
   41.0620   35.8410   31.1500 O   0  0  0  0  0  0  0  0  0  0  0  0
   42.7260   37.9000   33.0950 O   0  0  0  0  0  0  0  0  0  0  0  0
  2  8  1  0
  3  6  1  0
  3  4  1  0
  3  2  1  0
  4  9  1  0
  4  5  1  0
  5  1  1  0
  5  8  1  0
  6 10  1  0
  7  6  1  0
M  END
$$$$

     RDKit          3D

 13 13  0  0  0  0  0  0  0  0999 V2000
   43.6240   37.8240   31.7970 C   0  0  0  0  0  0  0  0  0  0  0  0
   44.2430   35.1470   31.3780 C   0  0  0  0  0  0  0  0  0  0  0  0
   42.8390   38.5540   32.7290 O   0  0  0  0  0  0  0  0  0  0  0  0
   40.2480   34.1120   32.3910 C   0  0  0  0  0  0  0  0  0  0  0  0
   41.4860   34.1410   33.2800 C   0  0  0  0  0  0  0  0  0  0  0  0
   44.9500   36.8910   30.0250 N   0  0  0  0  0  0  0  0  0  0  0  0
   44.4960   38.7490   31.2420 O   0  0  0  0  0  0  0  0  0  0  0  0
   42.8370   34.5860   31.3580 C   0  0  0  0  0  0  0  0  0  0  0  0
   44.1620   36.5780   31.1720 C   0  0  0  0  0  0  0  0  0  0  0  0
   42.3600   35.1440   32.6780 C   0  0  0  0  0  0  0  0  0  0  0  0
   42.2850   33.0250   33.1700 F   0  0  0  0  0  0  0  0  0  0  0  0
   41.6330   36.2880   32.5200 O   0  0  0  0  0  0  0  0  0  0  0  0
   42.3280   38.4670   31.3800 C   0  0  0  0  0  0  0  0  0  0  0  0
  1  7  1  0
  1  3  1  0
  5  4  1  0
  8  2  1  0
  8 10  1  0
  9  6  1  0
  9  2  1  0
  9  1  1  0
 10 12  1  0
 10  5  1  0
 11  5  1  0
 13  1  1  0
 13  3  1  0
M  END
$$$$

     RDKit          3D

 10  9  0  0  0  0  0  0  0  0999 V2000
   44.3130   38.6600   33.4100 C   0  0  0  0  0  0  0  0  0  0  0  0
   43.8870   37.6500   32.2010 C   0  0  0  0  0  0  0  0  0  0  0  0
   43.6980   34.8420   32.8230 O   0  0  0  0  0  0  0  0  0  0  0  0
   42.7560   35.3450   31.9890 C   0  0  0  0  0  0  0  0  0  0  0  0
   42.5630   37.0150   29.4200 S   0  0  0  0  0  0  0  0  0  0  0  0
   45.2600   36.9640   31.8670 C   0  0  0  0  0  0  0  0  0  0  0  0
   43.3620   37.9220   30.6110 C   0  0  0  0  0  0  0  0  0  0  0  0
   42.7130   36.7520   32.5600 C   0  0  0  0  0  0  0  0  0  0  0  0
   42.0300   34.6230   31.4330 O   0  0  0  0  0  0  0  0  0  0  0  0
   42.9110   36.7110   33.9310 O   0  0  0  0  0  0  0  0  0  0  0  0
  2  8  1  0
  2  1  1  0
  4  8  1  0
  4  3  1  0
  5  7  1  0
  6  2  1  0
  7  2  1  0
  8 10  1  0
  9  4  2  0
M  END
$$$$

     RDKit          3D

 18 18  0  0  0  0  0  0  0  0999 V2000
   46.1750   32.2760   35.0810 C   0  0  0  0  0  0  0  0  0  0  0  0
   43.2230   35.5860   35.8510 C   0  0  0  0  0  0  0  0  0  0  0  0
   37.4800   32.1450   35.2890 C   0  0  0  0  0  0  0  0  0  0  0  0
   32.5330   31.4660   34.1270 C   0  0  0  0  0  0  0  0  0  0  0  0
   46.2710   34.6910   35.4440 O   0  0  0  0  0  0  0  0  0  0  0  0
   38.9280   32.0160   34.8160 C   0  0  0  0  0  0  0  0  0  0  0  0
   43.3830   32.4930   36.1910 N   0  0  0  0  0  0  0  0  0  0  0  0
   38.7970   33.9110   36.3310 C   0  0  0  0  0  0  0  0  0  0  0  0
   41.6710   33.7180   35.5470 N   0  0  0  0  0  0  0  0  0  0  0  0
   35.8530   30.5810   34.4950 C   0  0  0  0  0  0  0  0  0  0  0  0
   43.0190   33.9800   36.0440 C   0  0  0  0  0  0  0  0  0  0  0  0
   45.4370   33.5700   35.2800 C   0  0  0  0  0  0  0  0  0  0  0  0
   34.5520   30.1340   35.1480 C   0  0  0  0  0  0  0  0  0  0  0  0
   40.7190   34.2480   34.9440 C   0  0  0  0  0  0  0  0  0  0  0  0
   36.8170   31.0990   35.3940 C   0  0  0  0  0  0  0  0  0  0  0  0
   44.4050   33.4600   36.3930 C   0  0  0  0  0  0  0  0  0  0  0  0
   39.5420   33.2660   35.2150 C   0  0  0  0  0  0  0  0  0  0  0  0
   33.3840   29.9960   34.2630 C   0  0  0  0  0  0  0  0  0  0  0  0
  3 15  1  0
  4 18  1  0
  6 17  1  0
  6  3  1  0
  7 16  1  0
  9 11  1  0
 10 13  1  0
 10 15  1  0
 11  2  1  0
 11  7  1  0
 11 16  1  0
 12  1  1  0
 12  5  1  0
 14 17  1  0
 14  9  1  0
 16 12  1  0
 17  8  1  0
 18 13  1  0
M  END
$$$$

     RDKit          3D

 11 11  0  0  0  0  0  0  0  0999 V2000
   42.2180   36.7870   32.8270 O   0  0  0  0  0  0  0  0  0  0  0  0
   43.5810   37.7970   30.4350 O   0  0  0  0  0  0  0  0  0  0  0  0
   44.0270   37.9050   31.7230 C   0  0  0  0  0  0  0  0  0  0  0  0
   44.1030   35.5740   34.4230 O   0  0  0  0  0  0  0  0  0  0  0  0
   43.7230   34.8300   33.2650 C   0  0  0  0  0  0  0  0  0  0  0  0
   42.3270   34.4140   33.0370 C   0  0  0  0  0  0  0  0  0  0  0  0
   43.8370   35.4900   31.9250 C   0  0  0  0  0  0  0  0  0  0  0  0
   41.5010   35.5830   32.5770 C   0  0  0  0  0  0  0  0  0  0  0  0
   44.5170   35.0690   31.0940 O   0  0  0  0  0  0  0  0  0  0  0  0
   43.5350   36.7660   32.5250 C   0  0  0  0  0  0  0  0  0  0  0  0
   42.6510   33.4230   32.0620 O   0  0  0  0  0  0  0  0  0  0  0  0
  2  3  1  0
  5  4  1  0
  6 11  1  0
  6  5  1  0
  7 10  1  0
  7  5  1  0
  8  1  1  0
  8  6  1  0
  9  7  2  0
 10  3  1  0
 10  1  1  0
M  END
$$$$

     RDKit          3D

 16 19  0  0  0  0  0  0  0  0999 V2000
   43.9430   36.7800   34.5120 C   0  0  0  0  0  0  0  0  0  0  0  0
   44.0800   35.4230   34.1010 C   0  0  0  0  0  0  0  0  0  0  0  0
   43.0610   36.3080   29.2680 C   0  0  0  0  0  0  0  0  0  0  0  0
   42.1030   37.1560   28.3260 C   0  0  0  0  0  0  0  0  0  0  0  0
   42.9240   38.9560   28.8640 C   0  0  0  0  0  0  0  0  0  0  0  0
   43.3380   37.2690   32.1860 C   0  0  0  0  0  0  0  0  0  0  0  0
   43.4660   37.6980   33.4960 C   0  0  0  0  0  0  0  0  0  0  0  0
   43.2490   35.9250   31.9220 C   0  0  0  0  0  0  0  0  0  0  0  0
   43.3050   37.3440   35.8630 C   0  0  0  0  0  0  0  0  0  0  0  0
   43.6820   34.9770   32.8500 C   0  0  0  0  0  0  0  0  0  0  0  0
   43.1240   38.1920   30.9930 C   0  0  0  0  0  0  0  0  0  0  0  0
   42.8270   35.4340   30.5290 C   0  0  0  0  0  0  0  0  0  0  0  0
   42.6290   37.7020   29.6170 N   0  0  0  0  0  0  0  0  0  0  0  0
   43.1710   38.0750   27.6420 C   0  0  0  0  0  0  0  0  0  0  0  0
   43.1740   38.9800   33.8890 N   0  0  0  0  0  0  0  0  0  0  0  0
   43.2430   37.9430   36.9110 N   0  0  0  0  0  0  0  0  0  0  0  0
  1  9  1  0
  2  1  1  0
  3 13  1  0
  3 12  1  0
  4 14  1  0
  4  3  1  0
  4 13  1  0
  6  7  1  0
  7 15  1  0
  7  1  2  0
  8  6  2  0
  8 10  1  0
  9 16  3  0
 10  2  2  0
 11  6  1  0
 12  8  1  0
 13  5  1  0
 13 11  1  0
 14  5  1  0
M  END
$$$$

     RDKit          3D

 10 10  0  0  0  0  0  0  0  0999 V2000
   43.3940   34.9430   31.8950 O   0  0  0  0  0  0  0  0  0  0  0  0
   44.0400   35.5770   33.2920 C   0  0  0  0  0  0  0  0  0  0  0  0
   43.5640   34.1200   32.9660 C   0  0  0  0  0  0  0  0  0  0  0  0
   41.4720   35.1420   31.0930 F   0  0  0  0  0  0  0  0  0  0  0  0
   42.0970   33.6030   33.1490 C   0  0  0  0  0  0  0  0  0  0  0  0
   41.4950   35.4060   34.4890 O   0  0  0  0  0  0  0  0  0  0  0  0
   45.4850   35.6780   33.4780 O   0  0  0  0  0  0  0  0  0  0  0  0
   39.8830   35.1460   32.8690 O   0  0  0  0  0  0  0  0  0  0  0  0
   41.4020   34.9780   33.2510 C   0  0  0  0  0  0  0  0  0  0  0  0
   42.0890   35.6220   32.1230 C   0  0  0  0  0  0  0  0  0  0  0  0
  1 10  1  0
  1  3  1  0
  2  7  1  0
  3  5  1  0
  3  2  1  0
  5  9  1  0
  8  9  1  0
  9  6  1  0
 10  4  1  0
 10  9  1  0
M  END
$$$$

     RDKit          3D

 13 13  0  0  0  0  0  0  0  0999 V2000
   42.6210   33.0870   33.9670 C   0  0  0  0  0  0  0  0  0  0  0  0
   42.2680   31.1860   37.7730 O   0  0  0  0  0  0  0  0  0  0  0  0
   41.7920   32.4660   35.0000 C   0  0  0  0  0  0  0  0  0  0  0  0
   41.9050   33.2180   36.2400 C   0  0  0  0  0  0  0  0  0  0  0  0
   42.7530   34.3660   35.8840 O   0  0  0  0  0  0  0  0  0  0  0  0
   41.4690   34.6110   32.3200 O   0  0  0  0  0  0  0  0  0  0  0  0
   42.0550   33.2880   32.6020 C   0  0  0  0  0  0  0  0  0  0  0  0
   42.4580   33.4840   38.7560 O   0  0  0  0  0  0  0  0  0  0  0  0
   41.4100   31.2270   35.0370 O   0  0  0  0  0  0  0  0  0  0  0  0
   44.2630   34.8480   33.6830 O   0  0  0  0  0  0  0  0  0  0  0  0
   42.7050   32.5670   37.6930 S   0  0  0  0  0  0  0  0  0  0  0  0
   44.2280   32.5040   37.5670 O   0  0  0  0  0  0  0  0  0  0  0  0
   43.0030   34.4760   34.3790 C   0  0  0  0  0  0  0  0  0  0  0  0
  1  7  1  0
  1 13  1  0
  1  3  1  0
  3  9  1  0
  3  4  1  0
  4 11  1  0
  5  4  1  0
  6  7  1  0
 11  2  1  0
 11  8  1  0
 12 11  1  0
 13 10  1  0
 13  5  1  0
M  END
$$$$

     RDKit          3D

  6  5  0  0  0  0  0  0  0  0999 V2000
   43.3220   37.4100   30.8380 O   0  0  0  0  0  0  0  0  0  0  0  0
   43.8750   34.6090   30.5650 Cl  0  0  0  0  0  0  0  0  0  0  0  0
   44.6190   37.1220   31.2420 C   0  0  0  0  0  0  0  0  0  0  0  0
   45.1160   35.6730   31.2140 C   0  0  0  0  0  0  0  0  0  0  0  0
   44.7430   37.8380   32.4390 O   0  0  0  0  0  0  0  0  0  0  0  0
   45.4500   35.1640   32.6340 C   0  0  0  0  0  0  0  0  0  0  0  0
  1  3  1  0
  2  4  1  0
  3  5  1  0
  4  3  1  0
  4  6  1  0
M  END
$$$$

     RDKit          3D

  8  7  0  0  0  0  0  0  0  0999 V2000
   43.9520   37.4010   32.2360 C   0  0  0  0  0  0  0  0  0  0  0  0
   43.6790   35.5410   34.6670 O   0  0  0  0  0  0  0  0  0  0  0  0
   44.6770   35.3280   33.6540 C   0  0  0  0  0  0  0  0  0  0  0  0
   43.0770   35.1310   31.2190 C   0  0  0  0  0  0  0  0  0  0  0  0
   45.1580   36.7490   33.1610 C   0  0  0  0  0  0  0  0  0  0  0  0
   42.8590   36.5470   31.6420 C   0  0  0  0  0  0  0  0  0  0  0  0
   44.2890   35.0160   30.4570 O   0  0  0  0  0  0  0  0  0  0  0  0
   46.1640   36.9110   34.3020 C   0  0  0  0  0  0  0  0  0  0  0  0
  1  5  1  0
  3  2  1  0
  4  6  1  0
  5  3  1  0
  5  8  1  0
  6  1  1  0
  7  4  1  0
M  END
$$$$

     RDKit          3D

 26 28  0  0  0  0  0  0  0  0999 V2000
   43.7870   34.9240   32.2040 C   0  0  0  0  0  0  0  0  0  0  0  0
   38.6180   32.0460   35.0360 C   0  0  0  0  0  0  0  0  0  0  0  0
   37.5800   31.6640   34.0270 C   0  0  0  0  0  0  0  0  0  0  0  0
   36.9080   30.4410   33.8760 C   0  0  0  0  0  0  0  0  0  0  0  0
   41.8290   35.2500   33.5640 C   0  0  0  0  0  0  0  0  0  0  0  0
   32.2640   29.1600   34.7530 C   0  0  0  0  0  0  0  0  0  0  0  0
   36.2360   31.8050   33.3810 C   0  0  0  0  0  0  0  0  0  0  0  0
   34.4890   29.9500   34.1880 C   0  0  0  0  0  0  0  0  0  0  0  0
   38.6830   31.2400   35.9310 O   0  0  0  0  0  0  0  0  0  0  0  0
   32.8500   29.8730   35.8640 N   0  0  0  0  0  0  0  0  0  0  0  0
   40.2620   33.4880   34.1080 O   0  0  0  0  0  0  0  0  0  0  0  0
   43.2580   36.2520   32.0230 N   0  0  0  0  0  0  0  0  0  0  0  0
   42.5660   36.3370   34.1330 C   0  0  0  0  0  0  0  0  0  0  0  0
   44.9690   38.4760   31.9570 C   0  0  0  0  0  0  0  0  0  0  0  0
   44.1070   39.2580   34.4100 C   0  0  0  0  0  0  0  0  0  0  0  0
   40.7970   34.7690   35.8450 C   0  0  0  0  0  0  0  0  0  0  0  0
   35.8680   29.5200   34.2200 C   0  0  0  0  0  0  0  0  0  0  0  0
   41.0280   34.5200   34.4990 C   0  0  0  0  0  0  0  0  0  0  0  0
   31.5970   31.0660   35.3330 C   0  0  0  0  0  0  0  0  0  0  0  0
   44.1050   38.2220   33.3040 C   0  0  0  0  0  0  0  0  0  0  0  0
   39.5820   33.1760   35.1820 C   0  0  0  0  0  0  0  0  0  0  0  0
   42.4630   36.7340   35.5760 C   0  0  0  0  0  0  0  0  0  0  0  0
   41.5510   35.9080   36.5130 C   0  0  0  0  0  0  0  0  0  0  0  0
   34.1600   30.4280   35.1900 C   0  0  0  0  0  0  0  0  0  0  0  0
   39.8290   33.9220   36.2160 N   0  0  0  0  0  0  0  0  0  0  0  0
   43.2420   36.9840   33.2110 C   0  0  0  0  0  0  0  0  0  0  0  0
  2 21  1  0
  2  9  2  0
  3  2  1  0
  4  3  1  0
  4 17  1  0
  5 13  2  0
  5 18  1  0
  6 10  1  0
  7  4  1  0
  7  3  1  0
  8 17  1  0
  8 24  1  0
 11 18  1  0
 11 21  1  0
 12  1  1  0
 13 22  1  0
 14 20  1  0
 16 25  1  0
 16 23  1  0
 18 16  2  0
 19 10  1  0
 20 15  1  0
 21 25  2  0
 22 23  2  0
 24 10  1  0
 26 12  1  0
 26 20  1  0
 26 13  1  0
M  END
$$$$

     RDKit          3D

 14 15  0  0  0  0  0  0  0  0999 V2000
   39.6180   33.5970   34.8220 C   0  0  0  0  0  0  0  0  0  0  0  0
   40.2740   33.4430   33.6810 C   0  0  0  0  0  0  0  0  0  0  0  0
   40.0680   34.8810   38.2330 O   0  0  0  0  0  0  0  0  0  0  0  0
   39.4500   33.9640   37.3690 C   0  0  0  0  0  0  0  0  0  0  0  0
   38.2770   32.8320   34.7390 C   0  0  0  0  0  0  0  0  0  0  0  0
   39.5090   32.5980   32.7200 C   0  0  0  0  0  0  0  0  0  0  0  0
   41.5650   34.6270   36.2970 C   0  0  0  0  0  0  0  0  0  0  0  0
   41.6420   35.9700   36.8410 O   0  0  0  0  0  0  0  0  0  0  0  0
   42.3060   34.5840   35.1050 O   0  0  0  0  0  0  0  0  0  0  0  0
   37.0490   32.6640   33.9300 C   0  0  0  0  0  0  0  0  0  0  0  0
   42.9390   36.0820   37.5020 O   0  0  0  0  0  0  0  0  0  0  0  0
   40.1810   34.0440   36.0730 C   0  0  0  0  0  0  0  0  0  0  0  0
   38.2020   32.2840   33.3320 C   0  0  0  0  0  0  0  0  0  0  0  0
   36.2000   31.2530   33.9680 C   0  0  0  0  0  0  0  0  0  0  0  0
  1 12  1  0
  2  1  2  0
  4  3  1  0
  5  1  1  0
  6  2  1  0
  7  9  1  0
  7  8  1  0
  8 11  1  0
 10 14  1  0
 10  5  1  0
 12  7  1  0
 12  4  1  0
 13  6  1  0
 13 10  1  0
 13  5  1  0
M  END
$$$$

     RDKit          3D

 12 12  0  0  0  0  0  0  0  0999 V2000
   37.1770   31.0900   33.6360 C   0  0  0  0  0  0  0  0  0  0  0  0
   39.2750   34.5920   32.8220 C   0  0  0  0  0  0  0  0  0  0  0  0
   35.7910   31.1910   33.7490 C   0  0  0  0  0  0  0  0  0  0  0  0
   35.0340   30.0270   33.5850 N   0  0  0  0  0  0  0  0  0  0  0  0
   38.1760   34.6330   33.3380 C   0  0  0  0  0  0  0  0  0  0  0  0
   40.5200   34.9510   32.8870 N   0  0  0  0  0  0  0  0  0  0  0  0
   37.3110   33.4910   33.5290 C   0  0  0  0  0  0  0  0  0  0  0  0
   35.9090   33.5690   33.6080 C   0  0  0  0  0  0  0  0  0  0  0  0
   40.7560   36.2930   33.0140 O   0  0  0  0  0  0  0  0  0  0  0  0
   37.9380   32.2520   33.6170 C   0  0  0  0  0  0  0  0  0  0  0  0
   41.5290   34.2760   32.3360 N   0  0  0  0  0  0  0  0  0  0  0  0
   35.1640   32.4130   33.8320 C   0  0  0  0  0  0  0  0  0  0  0  0
  1  3  1  0
  2  6  1  0
  2  5  1  0
  3 12  2  0
  4  3  1  0
  5  7  1  0
  6  9  1  0
  7  8  2  0
  7 10  1  0
  8 12  1  0
 10  1  2  0
 11  6  1  0
M  END
$$$$
