
     RDKit          3D

 17 18  0  0  0  0  0  0  0  0999 V2000
   38.9150   38.3400   24.5610 C   0  0  0  0  0  0  0  0  0  0  0  0
   36.5350   40.8240   24.5210 O   0  0  0  0  0  0  0  0  0  0  0  0
   39.5650   39.8100   22.6730 C   0  0  0  0  0  0  0  0  0  0  0  0
   37.3880   39.8450   23.8020 C   0  0  0  0  0  0  0  0  0  0  0  0
   35.8000   34.6300   26.7840 S   0  0  0  0  0  0  0  0  0  0  0  0
   38.3740   40.5840   23.0570 C   0  0  0  0  0  0  0  0  0  0  0  0
   37.1690   35.2640   24.7420 C   0  0  0  0  0  0  0  0  0  0  0  0
   39.4690   38.4750   23.2230 N   0  0  0  0  0  0  0  0  0  0  0  0
   36.6330   37.6740   25.0560 C   0  0  0  0  0  0  0  0  0  0  0  0
   36.7770   34.0280   25.4850 C   0  0  0  0  0  0  0  0  0  0  0  0
   35.3840   37.7210   25.8980 C   0  0  0  0  0  0  0  0  0  0  0  0
   35.1690   36.2600   26.4000 C   0  0  0  0  0  0  0  0  0  0  0  0
   37.4380   38.7190   24.6000 C   0  0  0  0  0  0  0  0  0  0  0  0
   33.9780   36.2820   27.2850 C   0  0  0  0  0  0  0  0  0  0  0  0
   33.0560   37.0810   27.1500 O   0  0  0  0  0  0  0  0  0  0  0  0
   33.8980   35.3940   28.2810 N   0  0  0  0  0  0  0  0  0  0  0  0
   37.1420   36.3780   25.0590 N   0  0  0  0  0  0  0  0  0  0  0  0
  3  6  1  0
  3  8  1  0
  4  2  1  0
  4 13  1  0
  6  4  1  0
  7 17  1  0
  7 10  1  0
  8  1  1  0
  9 17  1  0
  9 11  1  0
 10  5  1  0
 11 12  1  0
 12  5  1  0
 12 14  1  0
 13  1  1  0
 13  9  1  0
 14 16  1  0
 15 14  2  0
M  END
$$$$

     RDKit          3D

 14 13  0  0  0  0  0  0  0  0999 V2000
   36.9870   37.5220   25.6580 C   0  0  0  0  0  0  0  0  0  0  0  0
   36.5150   36.2170   27.8960 C   0  0  0  0  0  0  0  0  0  0  0  0
   36.5040   37.5680   24.4890 O   0  0  0  0  0  0  0  0  0  0  0  0
   37.8760   40.3520   24.3680 O   0  0  0  0  0  0  0  0  0  0  0  0
   37.0760   38.7160   26.3740 N   0  0  0  0  0  0  0  0  0  0  0  0
   38.6630   36.5320   26.9140 O   0  0  0  0  0  0  0  0  0  0  0  0
   38.1700   39.6570   26.4650 N   0  0  0  0  0  0  0  0  0  0  0  0
   34.6140   34.9240   27.2640 O   0  0  0  0  0  0  0  0  0  0  0  0
   37.2690   36.2910   26.5450 C   0  0  0  0  0  0  0  0  0  0  0  0
   34.5520   35.8330   29.2540 O   0  0  0  0  0  0  0  0  0  0  0  0
   38.3870   40.5770   25.4890 C   0  0  0  0  0  0  0  0  0  0  0  0
   35.1210   35.6810   28.1320 C   0  0  0  0  0  0  0  0  0  0  0  0
   39.3360   41.6930   25.7130 C   0  0  0  0  0  0  0  0  0  0  0  0
   36.8350   37.1940   28.8800 O   0  0  0  0  0  0  0  0  0  0  0  0
  1  5  1  0
  1  9  1  0
  2 12  1  0
  2 14  1  0
  3  1  2  0
  4 11  2  0
  5  7  1  0
  8 12  2  0
  9  6  1  0
  9  2  1  0
 11 13  1  0
 11  7  1  0
 12 10  1  0
M  END
$$$$

     RDKit          3D

 22 23  0  0  0  0  0  0  0  0999 V2000
   35.2650   36.3210   31.7200 C   0  0  0  0  0  0  0  0  0  0  0  0
   34.7000   36.0550   29.1800 C   0  0  0  0  0  0  0  0  0  0  0  0
   34.8270   36.4350   26.6680 C   0  0  0  0  0  0  0  0  0  0  0  0
   32.8070   35.3290   32.4200 C   0  0  0  0  0  0  0  0  0  0  0  0
   33.1520   36.2960   33.3200 C   0  0  0  0  0  0  0  0  0  0  0  0
   36.7640   36.8070   21.1100 C   0  0  0  0  0  0  0  0  0  0  0  0
   35.6340   35.3770   26.4050 C   0  0  0  0  0  0  0  0  0  0  0  0
   33.0530   35.6740   30.9420 C   0  0  0  0  0  0  0  0  0  0  0  0
   34.3260   36.0120   30.5660 C   0  0  0  0  0  0  0  0  0  0  0  0
   36.1750   35.5420   23.3780 C   0  0  0  0  0  0  0  0  0  0  0  0
   35.7510   35.2270   28.7560 C   0  0  0  0  0  0  0  0  0  0  0  0
   36.4530   35.8390   21.9950 C   0  0  0  0  0  0  0  0  0  0  0  0
   34.7400   36.5040   33.0550 C   0  0  0  0  0  0  0  0  0  0  0  0
   36.0930   35.1510   24.8910 C   0  0  0  0  0  0  0  0  0  0  0  0
   36.8090   38.3390   21.2220 C   0  0  0  0  0  0  0  0  0  0  0  0
   36.4900   39.4790   20.6710 O   0  0  0  0  0  0  0  0  0  0  0  0
   34.3010   36.7160   27.9390 N   0  0  0  0  0  0  0  0  0  0  0  0
   37.4290   37.8460   20.4170 O   0  0  0  0  0  0  0  0  0  0  0  0
   36.0050   34.6570   27.5460 C   0  0  0  0  0  0  0  0  0  0  0  0
   34.7000   36.8080   34.1190 O   0  0  0  0  0  0  0  0  0  0  0  0
   36.5430   38.4880   22.5280 F   0  0  0  0  0  0  0  0  0  0  0  0
   34.3950   37.2900   25.6100 O   0  0  0  0  0  0  0  0  0  0  0  0
  1 13  1  0
  2  9  1  0
  3 17  1  0
  4  5  1  0
  6 12  1  0
  7  3  1  0
  7 19  2  0
  8  4  1  0
  9  8  2  0
  9  1  1  0
 10 14  2  0
 11  2  1  0
 12 10  2  0
 13  5  1  0
 13 20  2  0
 14  7  1  0
 15 21  1  0
 16 15  2  0
 17  2  2  0
 18  6  1  0
 18 15  1  0
 19 11  1  0
 22  3  2  0
M  END
$$$$

     RDKit          3D

 20 19  0  0  0  0  0  0  0  0999 V2000
   37.1640   36.8670   25.0860 C   0  0  0  0  0  0  0  0  0  0  0  0
   36.1470   35.7260   25.2060 C   0  0  0  0  0  0  0  0  0  0  0  0
   35.3510   35.6880   26.4910 C   0  0  0  0  0  0  0  0  0  0  0  0
   39.1360   40.3520   20.8570 C   0  0  0  0  0  0  0  0  0  0  0  0
   32.7400   36.0930   30.8740 O   0  0  0  0  0  0  0  0  0  0  0  0
   35.5580   34.3900   28.4790 C   0  0  0  0  0  0  0  0  0  0  0  0
   36.0140   34.7990   27.3320 N   0  0  0  0  0  0  0  0  0  0  0  0
   34.5860   35.1810   29.0190 N   0  0  0  0  0  0  0  0  0  0  0  0
   39.7250   39.8360   19.8550 O   0  0  0  0  0  0  0  0  0  0  0  0
   36.2510   32.2410   29.7070 O   0  0  0  0  0  0  0  0  0  0  0  0
   36.2620   33.1910   28.9630 C   0  0  0  0  0  0  0  0  0  0  0  0
   32.5600   33.2040   29.7690 O   0  0  0  0  0  0  0  0  0  0  0  0
   33.6620   35.3150   30.1340 C   0  0  0  0  0  0  0  0  0  0  0  0
   33.7380   32.9370   30.4170 C   0  0  0  0  0  0  0  0  0  0  0  0
   39.3600   41.2510   21.5950 O   0  0  0  0  0  0  0  0  0  0  0  0
   37.8860   37.0140   23.7080 C   0  0  0  0  0  0  0  0  0  0  0  0
   37.7340   39.6170   21.0100 C   0  0  0  0  0  0  0  0  0  0  0  0
   37.1760   38.7340   21.9410 C   0  0  0  0  0  0  0  0  0  0  0  0
   33.9690   34.2030   31.0950 C   0  0  0  0  0  0  0  0  0  0  0  0
   38.2990   38.4630   23.2950 C   0  0  0  0  0  0  0  0  0  0  0  0
  1  2  2  3
  2  3  1  0
  3  7  1  0
  4 17  1  0
  4 15  1  0
  6 11  1  0
  6  8  2  3
  7  6  1  0
  8 13  1  0
  9  4  2  0
 11 10  2  0
 12 14  1  0
 13  5  2  0
 13 19  1  0
 14 19  1  0
 16  1  1  0
 17 18  1  0
 18 20  1  0
 20 16  1  0
M  END
$$$$

     RDKit          3D

 22 24  0  0  0  0  0  0  0  0999 V2000
   36.6040   36.5880   21.8640 O   0  0  0  0  0  0  0  0  0  0  0  0
   36.9620   39.4630   22.8490 C   0  0  0  0  0  0  0  0  0  0  0  0
   32.0130   36.5590   30.2060 O   0  0  0  0  0  0  0  0  0  0  0  0
   36.3800   36.9170   23.1400 C   0  0  0  0  0  0  0  0  0  0  0  0
   36.0090   35.8860   24.0220 C   0  0  0  0  0  0  0  0  0  0  0  0
   35.2390   35.2620   26.5070 N   0  0  0  0  0  0  0  0  0  0  0  0
   33.9550   35.0150   30.2120 S   0  0  0  0  0  0  0  0  0  0  0  0
   35.9260   35.3490   21.4720 C   0  0  0  0  0  0  0  0  0  0  0  0
   36.4510   38.2580   23.6150 C   0  0  0  0  0  0  0  0  0  0  0  0
   34.2520   35.6590   27.4590 C   0  0  0  0  0  0  0  0  0  0  0  0
   35.7370   37.4970   25.6990 N   0  0  0  0  0  0  0  0  0  0  0  0
   33.6350   35.8050   28.8140 C   0  0  0  0  0  0  0  0  0  0  0  0
   35.8010   38.5000   24.7970 C   0  0  0  0  0  0  0  0  0  0  0  0
   38.2930   40.2080   22.6390 C   0  0  0  0  0  0  0  0  0  0  0  0
   36.0510   34.1500   26.9670 C   0  0  0  0  0  0  0  0  0  0  0  0
   35.7610   33.3090   28.3680 C   0  0  0  0  0  0  0  0  0  0  0  0
   32.9220   35.9340   31.0500 C   0  0  0  0  0  0  0  0  0  0  0  0
   32.6450   36.8040   28.9760 C   0  0  0  0  0  0  0  0  0  0  0  0
   36.4820   33.1360   25.9030 C   0  0  0  0  0  0  0  0  0  0  0  0
   37.3930   40.5180   23.8080 C   0  0  0  0  0  0  0  0  0  0  0  0
   35.7140   36.2030   25.4020 C   0  0  0  0  0  0  0  0  0  0  0  0
   32.5570   36.0010   32.5250 C   0  0  0  0  0  0  0  0  0  0  0  0
  1  4  1  0
  2  9  1  0
  2 20  1  0
  3 17  1  0
  4  9  2  0
  4  5  1  0
  5 21  2  0
  6 15  1  0
  6 10  1  0
  7 17  1  0
  8  1  1  0
  9 13  1  0
 12 10  1  0
 12 18  1  0
 12  7  1  0
 13 11  2  0
 14  2  1  0
 14 20  1  0
 15 16  1  0
 17 22  1  0
 18  3  1  0
 19 15  1  0
 21 11  1  0
 21  6  1  0
M  END
$$$$

     RDKit          3D

 20 20  0  0  0  0  0  0  0  0999 V2000
   35.3210   35.5180   30.2530 C   0  0  0  0  0  0  0  0  0  0  0  0
   33.7790   35.6250   33.6860 S   0  0  0  0  0  0  0  0  0  0  0  0
   35.7170   35.6200   27.2610 C   0  0  0  0  0  0  0  0  0  0  0  0
   36.1710   34.8790   21.4390 O   0  0  0  0  0  0  0  0  0  0  0  0
   35.6220   37.6480   20.7680 C   0  0  0  0  0  0  0  0  0  0  0  0
   35.1880   35.5270   32.7820 N   0  0  0  0  0  0  0  0  0  0  0  0
   35.4510   38.0140   23.3050 C   0  0  0  0  0  0  0  0  0  0  0  0
   34.7180   35.7520   26.1160 C   0  0  0  0  0  0  0  0  0  0  0  0
   35.8830   35.7300   22.4400 C   0  0  0  0  0  0  0  0  0  0  0  0
   35.2220   36.1540   31.5680 C   0  0  0  0  0  0  0  0  0  0  0  0
   35.8040   35.3640   23.7890 C   0  0  0  0  0  0  0  0  0  0  0  0
   35.5660   37.1150   22.2080 C   0  0  0  0  0  0  0  0  0  0  0  0
   32.7260   36.3800   32.9990 O   0  0  0  0  0  0  0  0  0  0  0  0
   33.1500   34.0440   33.7260 C   0  0  0  0  0  0  0  0  0  0  0  0
   35.2330   36.2140   24.8410 C   0  0  0  0  0  0  0  0  0  0  0  0
   35.2820   39.3500   23.0620 O   0  0  0  0  0  0  0  0  0  0  0  0
   35.5110   36.8140   28.2910 C   0  0  0  0  0  0  0  0  0  0  0  0
   36.1470   36.3630   29.4750 N   0  0  0  0  0  0  0  0  0  0  0  0
   34.1950   36.2640   34.9660 O   0  0  0  0  0  0  0  0  0  0  0  0
   35.1410   37.5890   24.5840 C   0  0  0  0  0  0  0  0  0  0  0  0
  1 10  1  0
  2 14  1  0
  2 19  2  0
  3 17  1  0
  4  9  1  0
  5 12  1  0
  6  2  1  0
  7 20  1  0
  8  3  1  0
  9 11  2  0
 10  6  1  0
 11 15  1  0
 12  9  1  0
 12  7  2  0
 13  2  2  0
 15  8  1  0
 16  7  1  0
 17 18  1  0
 18  1  1  0
 20 15  2  0
M  END
$$$$

     RDKit          3D

  8  7  0  0  0  0  0  0  0  0999 V2000
   32.7190   37.7020   21.6670 O   0  0  0  0  0  0  0  0  0  0  0  0
   34.5890   36.5660   22.1640 C   0  0  0  0  0  0  0  0  0  0  0  0
   34.0810   37.7440   21.5330 N   0  0  0  0  0  0  0  0  0  0  0  0
   37.3950   35.3530   23.2140 C   0  0  0  0  0  0  0  0  0  0  0  0
   35.1440   35.5350   21.2360 C   0  0  0  0  0  0  0  0  0  0  0  0
   36.7740   36.7400   23.1820 C   0  0  0  0  0  0  0  0  0  0  0  0
   35.2990   36.7710   23.4470 C   0  0  0  0  0  0  0  0  0  0  0  0
   36.3470   35.4060   20.6290 N   0  0  0  0  0  0  0  0  0  0  0  0
  2  5  1  0
  2  7  1  0
  3  1  1  0
  3  2  1  0
  6  4  1  0
  6  7  1  0
  8  5  1  0
M  END
$$$$

     RDKit          3D

 13 13  0  0  0  0  0  0  0  0999 V2000
   31.5300   36.0750   28.4230 N   0  0  0  0  0  0  0  0  0  0  0  0
   35.3190   38.0390   23.8880 C   0  0  0  0  0  0  0  0  0  0  0  0
   31.8140   36.3920   27.0060 C   0  0  0  0  0  0  0  0  0  0  0  0
   35.4980   36.8400   23.3450 N   0  0  0  0  0  0  0  0  0  0  0  0
   36.0690   39.2370   23.3060 C   0  0  0  0  0  0  0  0  0  0  0  0
   34.9950   35.7440   23.9630 C   0  0  0  0  0  0  0  0  0  0  0  0
   35.9250   40.3270   24.1990 O   0  0  0  0  0  0  0  0  0  0  0  0
   34.4850   35.8390   25.2520 C   0  0  0  0  0  0  0  0  0  0  0  0
   33.7790   37.6460   27.6720 O   0  0  0  0  0  0  0  0  0  0  0  0
   33.0740   37.1750   26.6920 C   0  0  0  0  0  0  0  0  0  0  0  0
   35.3540   34.6540   23.5540 O   0  0  0  0  0  0  0  0  0  0  0  0
   34.2590   38.2110   24.7980 C   0  0  0  0  0  0  0  0  0  0  0  0
   33.9870   37.0580   25.6100 C   0  0  0  0  0  0  0  0  0  0  0  0
  2  5  1  0
  2 12  1  0
  3  1  1  0
  4  2  1  0
  4  6  1  0
  5  7  1  0
  6  8  1  0
  8 13  1  0
 10  3  1  0
 10  9  1  0
 11  6  2  0
 12 13  1  0
 13 10  1  0
M  END
$$$$

     RDKit          3D

  7  7  0  0  0  0  0  0  0  0999 V2000
   37.7890   39.6590   22.6300 C   0  0  0  0  0  0  0  0  0  0  0  0
   36.1930   35.6650   22.3920 C   0  0  0  0  0  0  0  0  0  0  0  0
   36.7970   37.6040   23.7100 N   0  0  0  0  0  0  0  0  0  0  0  0
   37.1840   35.9660   21.2660 C   0  0  0  0  0  0  0  0  0  0  0  0
   37.6800   37.3970   21.4660 C   0  0  0  0  0  0  0  0  0  0  0  0
   36.9560   38.3380   22.4220 C   0  0  0  0  0  0  0  0  0  0  0  0
   36.7960   36.1270   23.7220 C   0  0  0  0  0  0  0  0  0  0  0  0
  2  7  1  0
  3  7  1  0
  4  5  1  0
  4  2  1  0
  5  6  1  0
  6  1  1  0
  6  3  1  0
M  END
$$$$

     RDKit          3D

 10 10  0  0  0  0  0  0  0  0999 V2000
   34.8130   35.5350   22.5900 C   0  0  0  0  0  0  0  0  0  0  0  0
   33.5600   39.8690   21.6040 O   0  0  0  0  0  0  0  0  0  0  0  0
   35.0310   37.0000   20.4740 C   0  0  0  0  0  0  0  0  0  0  0  0
   34.1260   35.3680   23.7900 O   0  0  0  0  0  0  0  0  0  0  0  0
   35.1050   36.8100   22.0490 C   0  0  0  0  0  0  0  0  0  0  0  0
   34.1180   38.7980   21.5160 C   0  0  0  0  0  0  0  0  0  0  0  0
   35.3260   34.6160   22.3470 O   0  0  0  0  0  0  0  0  0  0  0  0
   35.3900   38.4540   20.6560 O   0  0  0  0  0  0  0  0  0  0  0  0
   33.8870   37.6240   22.3630 C   0  0  0  0  0  0  0  0  0  0  0  0
   32.7880   36.8130   21.9140 O   0  0  0  0  0  0  0  0  0  0  0  0
  1  4  1  0
  3  8  1  0
  3  5  1  0
  5  9  1  0
  5  1  1  0
  6  2  2  0
  6  9  1  0
  7  1  2  0
  8  6  1  0
  9 10  1  0
M  END
$$$$

     RDKit          3D

 14 14  0  0  0  0  0  0  0  0999 V2000
   33.6620   37.7210   26.2740 C   0  0  0  0  0  0  0  0  0  0  0  0
   34.0570   37.4300   27.5470 C   0  0  0  0  0  0  0  0  0  0  0  0
   35.8720   36.1220   26.7140 C   0  0  0  0  0  0  0  0  0  0  0  0
   32.0220   36.4130   24.8390 O   0  0  0  0  0  0  0  0  0  0  0  0
   34.1660   36.0210   21.4690 C   0  0  0  0  0  0  0  0  0  0  0  0
   32.6360   36.8350   23.3140 N   0  0  0  0  0  0  0  0  0  0  0  0
   33.0030   36.5850   24.4400 C   0  0  0  0  0  0  0  0  0  0  0  0
   32.8010   36.6720   21.8880 C   0  0  0  0  0  0  0  0  0  0  0  0
   34.4050   34.6110   22.0690 C   0  0  0  0  0  0  0  0  0  0  0  0
   34.0620   35.8790   20.0470 O   0  0  0  0  0  0  0  0  0  0  0  0
   34.0900   36.8170   25.3330 C   0  0  0  0  0  0  0  0  0  0  0  0
   35.2910   36.8440   27.7390 C   0  0  0  0  0  0  0  0  0  0  0  0
   35.2830   36.1070   25.4660 C   0  0  0  0  0  0  0  0  0  0  0  0
   35.6440   34.2070   21.5120 O   0  0  0  0  0  0  0  0  0  0  0  0
  1  2  1  0
  2 12  1  0
  3 12  2  0
  5 10  1  0
  5  8  1  0
  5  9  1  0
  6  7  1  0
  7  4  2  0
  8  6  1  0
 11  7  1  0
 11 13  1  0
 11  1  1  0
 13  3  1  0
 14  9  1  0
M  END
$$$$

     RDKit          3D

 10 11  0  0  0  0  0  0  0  0999 V2000
   34.8180   37.6790   22.1090 C   0  0  0  0  0  0  0  0  0  0  0  0
   35.0120   35.8630   23.6640 C   0  0  0  0  0  0  0  0  0  0  0  0
   33.7440   35.7500   22.7730 C   0  0  0  0  0  0  0  0  0  0  0  0
   37.0960   36.5590   22.4740 O   0  0  0  0  0  0  0  0  0  0  0  0
   35.3790   34.9750   24.4120 O   0  0  0  0  0  0  0  0  0  0  0  0
   35.8680   36.9900   23.1090 C   0  0  0  0  0  0  0  0  0  0  0  0
   35.7260   38.6690   21.6150 O   0  0  0  0  0  0  0  0  0  0  0  0
   34.3490   38.9380   21.3380 C   0  0  0  0  0  0  0  0  0  0  0  0
   33.7890   36.8610   21.9310 O   0  0  0  0  0  0  0  0  0  0  0  0
   33.8710   34.6750   21.7800 C   0  0  0  0  0  0  0  0  0  0  0  0
  1  8  1  0
  1  6  1  0
  2  5  2  0
  3 10  1  0
  3  2  1  0
  6  4  1  0
  6  2  1  0
  7  1  1  0
  8  7  1  0
  9  1  1  0
  9  3  1  0
M  END
$$$$

     RDKit          3D

  4  3  0  0  0  0  0  0  0  0999 V2000
   27.1360   15.4150   21.9460 N   0  0  0  0  0  0  0  0  0  0  0  0
   25.2730   14.8930   20.6630 O   0  0  0  0  0  0  0  0  0  0  0  0
   26.0850   15.3960   20.9950 C   0  0  0  0  0  0  0  0  0  0  0  0
   27.7540   15.8620   19.7650 Br  0  0  0  0  0  0  0  0  0  0  0  0
  2  3  2  0
  3  1  1  0
  4  3  1  0
M  END
$$$$

     RDKit          3D

 13 12  0  0  0  0  0  0  0  0999 V2000
   33.9680   35.9170   26.1540 O   0  0  0  0  0  0  0  0  0  0  0  0
   34.4390   39.6150   23.8150 O   0  0  0  0  0  0  0  0  0  0  0  0
   34.8870   35.2710   20.2290 P   0  0  0  0  0  0  0  0  0  0  0  0
   33.9140   37.2070   26.2930 C   0  0  0  0  0  0  0  0  0  0  0  0
   34.5160   36.6070   22.5580 C   0  0  0  0  0  0  0  0  0  0  0  0
   34.2150   38.2810   24.0880 C   0  0  0  0  0  0  0  0  0  0  0  0
   34.3170   37.8240   27.3210 O   0  0  0  0  0  0  0  0  0  0  0  0
   33.1930   37.9850   25.1890 C   0  0  0  0  0  0  0  0  0  0  0  0
   33.7050   37.8860   22.7490 C   0  0  0  0  0  0  0  0  0  0  0  0
   35.8060   34.2890   21.0270 O   0  0  0  0  0  0  0  0  0  0  0  0
   34.5350   36.5770   21.2630 C   0  0  0  0  0  0  0  0  0  0  0  0
   34.0960   34.8050   19.2100 O   0  0  0  0  0  0  0  0  0  0  0  0
   35.8620   35.9610   19.1390 O   0  0  0  0  0  0  0  0  0  0  0  0
  1  4  2  0
  3 10  1  0
  3 11  1  0
  4  7  1  0
  5  9  1  0
  6  2  1  0
  6  8  1  0
  8  4  1  0
  9  6  1  0
 11  5  1  0
 12  3  1  0
 13  3  2  0
M  END
$$$$

     RDKit          3D

 16 16  0  0  0  0  0  0  0  0999 V2000
   36.6690   38.7710   23.2220 C   0  0  0  0  0  0  0  0  0  0  0  0
   35.7030   35.2720   22.1750 C   0  0  0  0  0  0  0  0  0  0  0  0
   34.4520   34.6530   21.5240 C   0  0  0  0  0  0  0  0  0  0  0  0
   35.5680   37.8100   25.1760 C   0  0  0  0  0  0  0  0  0  0  0  0
   36.8790   41.9750   25.1920 O   0  0  0  0  0  0  0  0  0  0  0  0
   36.7860   34.4000   22.3520 O   0  0  0  0  0  0  0  0  0  0  0  0
   34.1800   35.3870   27.6520 N   0  0  0  0  0  0  0  0  0  0  0  0
   35.6450   36.4290   22.9670 C   0  0  0  0  0  0  0  0  0  0  0  0
   37.9430   42.9110   24.9410 C   0  0  0  0  0  0  0  0  0  0  0  0
   36.2770   39.0510   25.6100 C   0  0  0  0  0  0  0  0  0  0  0  0
   36.0830   37.5200   23.7860 N   0  0  0  0  0  0  0  0  0  0  0  0
   34.5920   36.1070   26.8510 C   0  0  0  0  0  0  0  0  0  0  0  0
   36.6360   41.5160   22.7750 O   0  0  0  0  0  0  0  0  0  0  0  0
   36.5810   41.1910   24.0760 C   0  0  0  0  0  0  0  0  0  0  0  0
   36.1400   39.8000   24.2790 C   0  0  0  0  0  0  0  0  0  0  0  0
   35.1460   36.6610   25.9160 C   0  0  0  0  0  0  0  0  0  0  0  0
  1 11  1  0
  1 15  1  0
  2  3  1  0
  2  6  1  0
  2  8  1  0
  4 10  1  0
  4 16  1  0
  8 11  1  0
  9  5  1  0
 11  4  1  0
 12  7  3  0
 13 14  2  0
 14  5  1  0
 15 14  1  0
 15 10  1  0
 16 12  1  0
M  END
$$$$

     RDKit          3D

  9  8  0  0  0  0  0  0  0  0999 V2000
   32.7150   37.0070   21.1990 O   0  0  0  0  0  0  0  0  0  0  0  0
   34.5470   38.2120   22.4580 C   0  0  0  0  0  0  0  0  0  0  0  0
   35.6380   37.1330   22.1120 C   0  0  0  0  0  0  0  0  0  0  0  0
   36.6880   35.1200   20.9990 C   0  0  0  0  0  0  0  0  0  0  0  0
   32.2010   37.2850   23.4590 C   0  0  0  0  0  0  0  0  0  0  0  0
   32.3410   39.3560   21.9320 C   0  0  0  0  0  0  0  0  0  0  0  0
   35.4390   35.9160   21.3850 C   0  0  0  0  0  0  0  0  0  0  0  0
   36.7060   37.2420   22.7660 O   0  0  0  0  0  0  0  0  0  0  0  0
   33.0180   37.7750   22.2300 C   0  0  0  0  0  0  0  0  0  0  0  0
  1  9  1  0
  3  2  1  0
  3  8  2  0
  4  7  1  0
  6  9  1  0
  7  3  1  0
  9  2  1  0
  9  5  1  0
M  END
$$$$

     RDKit          3D

 31 31  0  0  0  0  0  0  0  0999 V2000
   36.9130   41.7340   18.9680 C   0  0  0  0  0  0  0  0  0  0  0  0
   37.6200   36.9970   22.6570 C   0  0  0  0  0  0  0  0  0  0  0  0
   32.7940   33.1670   37.0710 O   0  0  0  0  0  0  0  0  0  0  0  0
   34.9770   30.4330   34.5240 C   0  0  0  0  0  0  0  0  0  0  0  0
   34.5440   31.8150   30.0950 C   0  0  0  0  0  0  0  0  0  0  0  0
   38.2440   42.5640   18.7280 N   0  0  0  0  0  0  0  0  0  0  0  0
   34.7880   30.4580   30.2960 C   0  0  0  0  0  0  0  0  0  0  0  0
   33.1260   31.7040   35.3380 C   0  0  0  0  0  0  0  0  0  0  0  0
   38.5820   40.3040   19.1480 O   0  0  0  0  0  0  0  0  0  0  0  0
   37.2040   40.0650   20.8720 O   0  0  0  0  0  0  0  0  0  0  0  0
   36.4560   34.6170   25.2980 C   0  0  0  0  0  0  0  0  0  0  0  0
   38.8800   41.4610   18.3520 C   0  0  0  0  0  0  0  0  0  0  0  0
   36.8040   35.8250   23.1550 C   0  0  0  0  0  0  0  0  0  0  0  0
   34.6860   29.8510   31.6180 C   0  0  0  0  0  0  0  0  0  0  0  0
   35.0400   33.1640   27.9940 C   0  0  0  0  0  0  0  0  0  0  0  0
   35.4330   34.5030   27.6850 C   0  0  0  0  0  0  0  0  0  0  0  0
   36.3500   36.0000   24.5790 C   0  0  0  0  0  0  0  0  0  0  0  0
   36.6960   38.9170   21.2700 C   0  0  0  0  0  0  0  0  0  0  0  0
   40.3670   40.3440   17.0990 C   0  0  0  0  0  0  0  0  0  0  0  0
   34.5790   31.2380   35.6860 C   0  0  0  0  0  0  0  0  0  0  0  0
   36.5080   34.7940   26.7460 N   0  0  0  0  0  0  0  0  0  0  0  0
   35.0350   32.6770   29.2110 N   0  0  0  0  0  0  0  0  0  0  0  0
   32.4980   31.9040   36.6710 C   0  0  0  0  0  0  0  0  0  0  0  0
   33.8740   30.7290   33.7720 N   0  0  0  0  0  0  0  0  0  0  0  0
   38.2200   43.0960   17.5380 O   0  0  0  0  0  0  0  0  0  0  0  0
   34.0660   30.6220   32.5320 O   0  0  0  0  0  0  0  0  0  0  0  0
   37.4900   40.9010   20.0090 C   0  0  0  0  0  0  0  0  0  0  0  0
   41.4680   39.6780   17.7100 O   0  0  0  0  0  0  0  0  0  0  0  0
   40.2600   41.8350   17.9240 C   0  0  0  0  0  0  0  0  0  0  0  0
   32.0060   31.6630   34.5260 O   0  0  0  0  0  0  0  0  0  0  0  0
   36.8490   37.8020   21.7070 O   0  0  0  0  0  0  0  0  0  0  0  0
  1 27  1  0
  2 13  1  0
  4 20  1  0
  5  7  1  0
  6  1  1  0
  7 14  1  0
  8 30  1  0
  8 20  1  0
  8 23  1  0
  9 27  1  0
 10 18  1  0
 11 21  1  0
 12 29  1  0
 12  6  1  0
 12  9  1  0
 13 17  1  0
 14 26  1  0
 15 22  1  0
 16 15  1  0
 17 11  1  0
 18 31  1  0
 19 28  1  0
 19 29  1  0
 21 16  1  0
 22  5  1  0
 23  3  1  0
 24  4  1  0
 25  6  1  0
 26 24  1  0
 27 10  1  0
 31  2  1  0
M  END
$$$$

     RDKit          3D

  6  5  0  0  0  0  0  0  0  0999 V2000
   33.1870   37.2620   21.5020 O   0  0  0  0  0  0  0  0  0  0  0  0
   35.0210   37.8760   19.9810 C   0  0  0  0  0  0  0  0  0  0  0  0
   35.5790   34.8270   22.3080 C   0  0  0  0  0  0  0  0  0  0  0  0
   36.3620   36.1060   22.5230 C   0  0  0  0  0  0  0  0  0  0  0  0
   34.3380   37.2820   21.2470 C   0  0  0  0  0  0  0  0  0  0  0  0
   35.3730   37.2610   22.4600 C   0  0  0  0  0  0  0  0  0  0  0  0
  2  5  1  0
  3  4  1  0
  5  1  2  0
  5  6  1  0
  6  4  1  0
M  END
$$$$

     RDKit          3D

 16 16  0  0  0  0  0  0  0  0999 V2000
   33.1660   35.8860   28.3250 C   0  0  0  0  0  0  0  0  0  0  0  0
   35.4420   35.3790   27.7560 O   0  0  0  0  0  0  0  0  0  0  0  0
   34.9380   37.9870   24.4090 O   0  0  0  0  0  0  0  0  0  0  0  0
   36.8360   37.7280   23.2290 O   0  0  0  0  0  0  0  0  0  0  0  0
   32.0510   37.4430   27.0340 C   0  0  0  0  0  0  0  0  0  0  0  0
   31.9320   36.4430   27.9390 C   0  0  0  0  0  0  0  0  0  0  0  0
   33.2910   35.0930   29.7900 Cl  0  0  0  0  0  0  0  0  0  0  0  0
   33.3490   37.7380   26.4190 C   0  0  0  0  0  0  0  0  0  0  0  0
   35.2680   40.2280   21.9350 O   0  0  0  0  0  0  0  0  0  0  0  0
   34.3120   36.0310   27.5100 C   0  0  0  0  0  0  0  0  0  0  0  0
   35.8410   38.4210   23.4930 C   0  0  0  0  0  0  0  0  0  0  0  0
   35.8520   39.8650   22.9620 C   0  0  0  0  0  0  0  0  0  0  0  0
   35.8320   40.8300   24.1050 C   0  0  0  0  0  0  0  0  0  0  0  0
   35.3990   37.0420   25.4160 C   0  0  0  0  0  0  0  0  0  0  0  0
   34.3300   36.8960   26.4160 C   0  0  0  0  0  0  0  0  0  0  0  0
   37.4210   40.0990   22.6700 O   0  0  0  0  0  0  0  0  0  0  0  0
  1  7  1  0
  3 14  1  0
  4 11  2  0
  5  6  1  0
  6  1  1  0
  8  5  1  0
  9 12  1  0
 10  2  1  0
 10  1  1  0
 11  3  1  0
 12 11  1  0
 12 13  1  0
 14 15  1  0
 15  8  1  0
 15 10  2  0
 16 12  1  0
M  END
$$$$

     RDKit          3D

 17 17  0  0  0  0  0  0  0  0999 V2000
   34.5820   34.5340   27.0540 C   0  0  0  0  0  0  0  0  0  0  0  0
   34.6520   35.8280   27.4420 C   0  0  0  0  0  0  0  0  0  0  0  0
   34.1810   37.6200   23.1400 O   0  0  0  0  0  0  0  0  0  0  0  0
   35.0230   33.9510   26.0520 O   0  0  0  0  0  0  0  0  0  0  0  0
   35.3730   36.8430   26.5460 C   0  0  0  0  0  0  0  0  0  0  0  0
   36.0740   35.7440   23.5950 C   0  0  0  0  0  0  0  0  0  0  0  0
   35.3710   36.4100   25.0090 C   0  0  0  0  0  0  0  0  0  0  0  0
   33.7260   33.9290   27.8490 N   0  0  0  0  0  0  0  0  0  0  0  0
   36.2060   34.7470   23.5120 C   0  0  0  0  0  0  0  0  0  0  0  0
   34.1020   38.8600   25.1750 O   0  0  0  0  0  0  0  0  0  0  0  0
   31.9440   34.4970   29.4480 C   0  0  0  0  0  0  0  0  0  0  0  0
   36.3830   38.6250   24.0780 O   0  0  0  0  0  0  0  0  0  0  0  0
   31.8600   32.9360   29.6000 C   0  0  0  0  0  0  0  0  0  0  0  0
   34.9880   37.9820   24.2930 P   0  0  0  0  0  0  0  0  0  0  0  0
   33.1140   34.8290   28.6550 C   0  0  0  0  0  0  0  0  0  0  0  0
   31.2520   35.2890   30.1560 O   0  0  0  0  0  0  0  0  0  0  0  0
   33.7470   36.0610   28.4760 C   0  0  0  0  0  0  0  0  0  0  0  0
  1  2  1  0
  1  8  1  0
  2 17  2  0
  3 14  2  0
  4  1  2  0
  5  2  1  0
  7  6  1  0
  7  5  1  0
  8 15  2  0
  9  6  2  0
 11 13  1  0
 11 16  2  0
 12 14  1  0
 14  7  1  0
 14 10  1  0
 15 11  1  0
 17 15  1  0
M  END
$$$$
