
     RDKit          3D

 11 12  0  0  0  0  0  0  0  0999 V2000
   34.8380   38.2910   31.5140 O   0  0  0  0  0  0  0  0  0  0  0  0
   38.9810   36.6440   27.6960 O   0  0  0  0  0  0  0  0  0  0  0  0
   36.6870   37.2420   29.7810 C   0  0  0  0  0  0  0  0  0  0  0  0
   38.6910   36.8130   26.5120 O   0  0  0  0  0  0  0  0  0  0  0  0
   35.8330   38.2750   30.4450 C   0  0  0  0  0  0  0  0  0  0  0  0
   34.7960   40.2440   29.4460 O   0  0  0  0  0  0  0  0  0  0  0  0
   35.7220   39.3720   29.2960 C   0  0  0  0  0  0  0  0  0  0  0  0
   35.3270   36.8800   29.7740 C   0  0  0  0  0  0  0  0  0  0  0  0
   38.0560   37.5280   27.4810 C   0  0  0  0  0  0  0  0  0  0  0  0
   37.4730   38.6790   27.8410 C   0  0  0  0  0  0  0  0  0  0  0  0
   36.5310   39.2230   28.1590 C   0  0  0  0  0  0  0  0  0  0  0  0
  3  5  1  0
  4  9  1  0
  4  2  1  0
  5  1  1  0
  7  6  2  0
  7  5  1  0
  8  3  1  0
  8  5  1  0
  9  2  1  0
  9 10  1  0
 10 11  1  0
 11  7  1  0
M  END
$$$$

     RDKit          3D

 14 13  0  0  0  0  0  0  0  0999 V2000
   37.8730   41.9110   27.5100 O   0  0  0  0  0  0  0  0  0  0  0  0
   34.7640   37.4150   29.7960 C   0  0  0  0  0  0  0  0  0  0  0  0
   36.0260   37.0640   29.0750 C   0  0  0  0  0  0  0  0  0  0  0  0
   34.1890   36.1500   30.4660 C   0  0  0  0  0  0  0  0  0  0  0  0
   36.2620   33.0550   31.7830 C   0  0  0  0  0  0  0  0  0  0  0  0
   36.9020   38.2850   28.7490 C   0  0  0  0  0  0  0  0  0  0  0  0
   38.8800   39.9580   27.5140 O   0  0  0  0  0  0  0  0  0  0  0  0
   35.0720   33.9870   31.6770 C   0  0  0  0  0  0  0  0  0  0  0  0
   33.9530   38.1810   28.7710 C   0  0  0  0  0  0  0  0  0  0  0  0
   35.2460   35.2490   31.1040 C   0  0  0  0  0  0  0  0  0  0  0  0
   38.6690   40.7680   29.6950 O   0  0  0  0  0  0  0  0  0  0  0  0
   36.5080   39.6760   28.8150 C   0  0  0  0  0  0  0  0  0  0  0  0
   37.8400   40.7590   28.4180 P   0  0  0  0  0  0  0  0  0  0  0  0
   38.1560   37.9280   28.1520 C   0  0  0  0  0  0  0  0  0  0  0  0
  1 13  2  0
  2  9  1  0
  2  4  1  0
  3  2  1  0
  4 10  1  0
  6 14  1  0
  6 12  1  0
  6  3  1  0
  7 13  1  0
  8  5  1  0
 10  8  1  0
 13 12  1  0
 13 11  1  0
M  END
$$$$

     RDKit          3D

 24 25  0  0  0  0  0  0  0  0999 V2000
   36.4980   37.2780   31.0600 C   0  0  0  0  0  0  0  0  0  0  0  0
   37.0990   41.9730   26.7990 C   0  0  0  0  0  0  0  0  0  0  0  0
   33.8800   35.5470   35.5780 C   0  0  0  0  0  0  0  0  0  0  0  0
   38.2320   42.9070   24.9190 C   0  0  0  0  0  0  0  0  0  0  0  0
   37.2510   37.4180   32.2130 C   0  0  0  0  0  0  0  0  0  0  0  0
   35.7120   36.4990   33.9300 C   0  0  0  0  0  0  0  0  0  0  0  0
   33.4090   35.8300   37.9490 N   0  0  0  0  0  0  0  0  0  0  0  0
   37.3200   43.0470   25.9600 C   0  0  0  0  0  0  0  0  0  0  0  0
   38.6270   40.6480   25.5040 C   0  0  0  0  0  0  0  0  0  0  0  0
   40.1170   41.7090   23.8990 F   0  0  0  0  0  0  0  0  0  0  0  0
   35.2630   36.6620   30.9410 C   0  0  0  0  0  0  0  0  0  0  0  0
   38.3290   38.3110   30.0030 O   0  0  0  0  0  0  0  0  0  0  0  0
   36.3730   39.7150   28.2460 C   0  0  0  0  0  0  0  0  0  0  0  0
   34.3430   36.3000   31.9170 C   0  0  0  0  0  0  0  0  0  0  0  0
   37.6170   39.5510   27.3540 C   0  0  0  0  0  0  0  0  0  0  0  0
   33.2700   35.9440   34.2980 C   0  0  0  0  0  0  0  0  0  0  0  0
   37.7730   40.7910   26.5440 C   0  0  0  0  0  0  0  0  0  0  0  0
   37.5380   38.3790   26.5120 C   0  0  0  0  0  0  0  0  0  0  0  0
   36.3980   38.6610   29.0350 N   0  0  0  0  0  0  0  0  0  0  0  0
   33.4090   34.9290   36.6970 C   0  0  0  0  0  0  0  0  0  0  0  0
   37.1180   38.0430   29.9180 C   0  0  0  0  0  0  0  0  0  0  0  0
   39.0500   41.7800   24.8910 C   0  0  0  0  0  0  0  0  0  0  0  0
   36.8920   37.0610   33.4930 C   0  0  0  0  0  0  0  0  0  0  0  0
   34.4240   36.4280   33.3710 C   0  0  0  0  0  0  0  0  0  0  0  0
  1  5  1  0
  3 20  1  0
  4  8  1  0
  5 23  1  0
  8  2  2  0
  9 17  2  0
 10 22  1  0
 11  1  2  0
 11 14  1  0
 13 19  1  0
 14 24  2  0
 15 18  1  0
 15 13  1  0
 16  3  1  0
 17  2  1  0
 17 15  1  0
 19 21  1  0
 20  7  1  0
 21 12  2  0
 21  1  1  0
 22  4  2  0
 22  9  1  0
 23  6  2  0
 24  6  1  0
 24 16  1  0
M  END
$$$$

     RDKit          3D

 20 20  0  0  0  0  0  0  0  0999 V2000
   36.4430   37.8720   31.3130 C   0  0  0  0  0  0  0  0  0  0  0  0
   40.3190   41.2490   25.8230 O   0  0  0  0  0  0  0  0  0  0  0  0
   37.5070   38.1610   28.2240 C   0  0  0  0  0  0  0  0  0  0  0  0
   37.8740   41.5310   25.5360 O   0  0  0  0  0  0  0  0  0  0  0  0
   36.8570   36.9810   31.9970 O   0  0  0  0  0  0  0  0  0  0  0  0
   36.4880   34.8200   32.7730 C   0  0  0  0  0  0  0  0  0  0  0  0
   39.0190   37.9920   26.6700 C   0  0  0  0  0  0  0  0  0  0  0  0
   37.0250   36.0010   33.7400 C   0  0  0  0  0  0  0  0  0  0  0  0
   39.0080   40.6070   25.7310 P   0  0  0  0  0  0  0  0  0  0  0  0
   36.6880   37.7580   29.1650 C   0  0  0  0  0  0  0  0  0  0  0  0
   38.5760   39.3260   26.8530 C   0  0  0  0  0  0  0  0  0  0  0  0
   35.4080   34.1460   32.8500 N   0  0  0  0  0  0  0  0  0  0  0  0
   37.7900   39.4000   27.8670 C   0  0  0  0  0  0  0  0  0  0  0  0
   36.9420   37.3030   30.0740 C   0  0  0  0  0  0  0  0  0  0  0  0
   36.9140   34.2170   35.3840 O   0  0  0  0  0  0  0  0  0  0  0  0
   38.5000   35.7560   35.6510 N   0  0  0  0  0  0  0  0  0  0  0  0
   37.5570   35.1670   34.9030 C   0  0  0  0  0  0  0  0  0  0  0  0
   39.4340   39.5980   24.2350 O   0  0  0  0  0  0  0  0  0  0  0  0
   38.2380   37.1770   27.5750 C   0  0  0  0  0  0  0  0  0  0  0  0
   37.4570   36.9670   33.2580 C   0  0  0  0  0  0  0  0  0  0  0  0
  1  5  1  0
  3 10  1  0
  4  9  1  0
  5 20  1  0
  6 12  2  0
  7 11  2  0
  7 19  1  0
  8  6  1  0
  8 17  1  0
  9  2  1  0
  9 11  1  0
 10 14  1  0
 11 13  1  0
 13  3  1  0
 14  1  1  0
 17 15  2  0
 17 16  1  0
 18  9  2  0
 19  3  2  0
 20  8  1  0
M  END
$$$$

     RDKit          3D

 13 13  0  0  0  0  0  0  0  0999 V2000
   36.3760   38.6460   27.3880 C   0  0  0  0  0  0  0  0  0  0  0  0
   35.5340   36.7780   32.6380 C   0  0  0  0  0  0  0  0  0  0  0  0
   36.6810   36.2980   34.8470 C   0  0  0  0  0  0  0  0  0  0  0  0
   35.8190   38.4000   28.7360 N   0  0  0  0  0  0  0  0  0  0  0  0
   37.6760   36.9950   35.5920 N   0  0  0  0  0  0  0  0  0  0  0  0
   35.5950   37.6410   31.4840 C   0  0  0  0  0  0  0  0  0  0  0  0
   37.9680   36.8240   32.7400 C   0  0  0  0  0  0  0  0  0  0  0  0
   36.9110   38.4100   29.6080 C   0  0  0  0  0  0  0  0  0  0  0  0
   36.2950   34.9350   35.3030 C   0  0  0  0  0  0  0  0  0  0  0  0
   36.7390   36.6130   33.3980 C   0  0  0  0  0  0  0  0  0  0  0  0
   37.9910   37.1900   31.4090 C   0  0  0  0  0  0  0  0  0  0  0  0
   36.8550   37.7560   30.8110 C   0  0  0  0  0  0  0  0  0  0  0  0
   38.0910   38.8560   29.2180 N   0  0  0  0  0  0  0  0  0  0  0  0
  1  4  1  0
  2 10  1  0
  3  9  1  0
  3  5  1  0
  4  8  1  0
  6  2  2  0
  7 10  2  0
  8 12  1  0
 10  3  1  0
 11  7  1  0
 12 11  2  0
 12  6  1  0
 13  8  2  0
M  END
$$$$

     RDKit          3D

 22 22  0  0  0  0  0  0  0  0999 V2000
   38.1610   41.6240   21.3670 C   0  0  0  0  0  0  0  0  0  0  0  0
   37.4920   38.8780   25.0920 C   0  0  0  0  0  0  0  0  0  0  0  0
   38.1530   38.7550   21.9380 O   0  0  0  0  0  0  0  0  0  0  0  0
   36.3890   38.5600   24.4750 O   0  0  0  0  0  0  0  0  0  0  0  0
   34.3570   37.6480   29.1940 C   0  0  0  0  0  0  0  0  0  0  0  0
   36.5970   39.0360   27.4870 C   0  0  0  0  0  0  0  0  0  0  0  0
   39.7260   41.6220   21.3730 N   0  0  0  0  0  0  0  0  0  0  0  0
   37.9110   43.2090   21.3950 S   0  0  0  0  0  0  0  0  0  0  0  0
   38.2940   43.8610   22.7080 O   0  0  0  0  0  0  0  0  0  0  0  0
   37.7630   38.7670   26.5250 C   0  0  0  0  0  0  0  0  0  0  0  0
   33.5720   36.7770   29.9860 C   0  0  0  0  0  0  0  0  0  0  0  0
   37.7210   40.8780   22.5850 C   0  0  0  0  0  0  0  0  0  0  0  0
   34.1710   36.0010   30.9860 C   0  0  0  0  0  0  0  0  0  0  0  0
   39.0680   38.7380   27.1150 C   0  0  0  0  0  0  0  0  0  0  0  0
   38.3220   39.5320   22.8730 C   0  0  0  0  0  0  0  0  0  0  0  0
   35.4900   36.2400   31.4150 C   0  0  0  0  0  0  0  0  0  0  0  0
   38.4320   43.7880   20.1820 O   0  0  0  0  0  0  0  0  0  0  0  0
   36.5310   43.5980   21.5660 O   0  0  0  0  0  0  0  0  0  0  0  0
   35.6810   37.7820   29.5270 C   0  0  0  0  0  0  0  0  0  0  0  0
   36.7760   38.4320   28.7280 C   0  0  0  0  0  0  0  0  0  0  0  0
   36.1130   37.3180   30.7830 C   0  0  0  0  0  0  0  0  0  0  0  0
   38.7730   39.2090   24.2840 C   0  0  0  0  0  0  0  0  0  0  0  0
  1  7  1  0
  1  8  1  0
  1 12  1  0
  2  4  1  0
  2 10  1  0
  3 15  2  0
  5 19  2  0
  5 11  1  0
  6 20  1  0
  8 18  1  0
  8  9  1  0
 10 14  1  0
 10  6  1  0
 11 13  2  0
 12 15  1  0
 13 16  1  0
 15 22  1  0
 17  8  1  0
 19 21  1  0
 20 19  1  0
 21 16  1  0
 22  2  1  0
M  END
$$$$

     RDKit          3D

 11 10  0  0  0  0  0  0  0  0999 V2000
   34.4360   36.1620   29.7200 O   0  0  0  0  0  0  0  0  0  0  0  0
   36.9550   39.8980   28.1460 C   0  0  0  0  0  0  0  0  0  0  0  0
   35.1450   38.2740   28.7790 C   0  0  0  0  0  0  0  0  0  0  0  0
   38.2090   40.1280   27.5740 C   0  0  0  0  0  0  0  0  0  0  0  0
   35.2690   37.5000   31.0310 O   0  0  0  0  0  0  0  0  0  0  0  0
   36.2590   40.9280   28.2160 O   0  0  0  0  0  0  0  0  0  0  0  0
   33.9560   39.2400   28.9050 C   0  0  0  0  0  0  0  0  0  0  0  0
   38.8020   39.3040   26.9640 O   0  0  0  0  0  0  0  0  0  0  0  0
   35.0740   37.2060   29.8770 C   0  0  0  0  0  0  0  0  0  0  0  0
   36.3750   38.7230   28.3430 N   0  0  0  0  0  0  0  0  0  0  0  0
   38.6180   41.2700   27.4360 O   0  0  0  0  0  0  0  0  0  0  0  0
  1  9  2  0
  2  6  2  0
  2 10  1  0
  3  7  1  0
  3  9  1  0
  4  2  1  0
  8  4  2  0
  9  5  1  0
 10  3  1  0
 11  4  1  0
M  END
$$$$

     RDKit          3D

 14 15  0  0  0  0  0  0  0  0999 V2000
   36.2930   36.9190   29.5390 C   0  0  0  0  0  0  0  0  0  0  0  0
   36.5570   40.0590   26.5280 C   0  0  0  0  0  0  0  0  0  0  0  0
   35.1620   35.9460   31.4920 N   0  0  0  0  0  0  0  0  0  0  0  0
   35.9090   38.0890   28.6000 C   0  0  0  0  0  0  0  0  0  0  0  0
   37.0100   37.9180   27.6480 C   0  0  0  0  0  0  0  0  0  0  0  0
   31.3890   36.6090   30.7390 Br  0  0  0  0  0  0  0  0  0  0  0  0
   37.3130   38.9120   26.6890 C   0  0  0  0  0  0  0  0  0  0  0  0
   35.1100   39.3780   28.3620 C   0  0  0  0  0  0  0  0  0  0  0  0
   35.4970   40.2840   27.3980 C   0  0  0  0  0  0  0  0  0  0  0  0
   35.1210   36.7090   30.4860 C   0  0  0  0  0  0  0  0  0  0  0  0
   33.9250   35.7820   31.7940 N   0  0  0  0  0  0  0  0  0  0  0  0
   33.9920   37.2860   30.1560 N   0  0  0  0  0  0  0  0  0  0  0  0
   37.9470   36.6530   27.8290 Cl  0  0  0  0  0  0  0  0  0  0  0  0
   33.1580   36.6250   30.8500 C   0  0  0  0  0  0  0  0  0  0  0  0
  1 10  1  0
  2  7  2  0
  2  9  1  0
  3 11  1  0
  4  1  1  0
  5 13  1  0
  5  4  2  0
  6 14  1  0
  7  5  1  0
  8  4  1  0
  9  8  2  0
 10  3  2  0
 12 10  1  0
 12 14  1  0
 14 11  2  0
M  END
$$$$

     RDKit          3D

 16 17  0  0  0  0  0  0  0  0999 V2000
   35.3350   36.4400   33.3530 C   0  0  0  0  0  0  0  0  0  0  0  0
   38.9720   40.9570   28.9110 N   0  0  0  0  0  0  0  0  0  0  0  0
   36.9930   37.3970   30.8680 C   0  0  0  0  0  0  0  0  0  0  0  0
   38.3650   40.0220   29.7910 C   0  0  0  0  0  0  0  0  0  0  0  0
   36.9980   34.9270   35.0890 C   0  0  0  0  0  0  0  0  0  0  0  0
   37.8090   38.9910   29.2670 N   0  0  0  0  0  0  0  0  0  0  0  0
   37.7260   35.3860   33.8700 C   0  0  0  0  0  0  0  0  0  0  0  0
   38.2660   41.0680   27.6970 C   0  0  0  0  0  0  0  0  0  0  0  0
   36.8550   36.3730   33.1390 C   0  0  0  0  0  0  0  0  0  0  0  0
   37.3670   40.1330   27.2900 C   0  0  0  0  0  0  0  0  0  0  0  0
   38.1660   37.8200   30.0240 C   0  0  0  0  0  0  0  0  0  0  0  0
   37.0620   36.3490   31.6630 C   0  0  0  0  0  0  0  0  0  0  0  0
   37.1410   39.0810   28.1400 C   0  0  0  0  0  0  0  0  0  0  0  0
   38.7400   42.1180   27.3450 O   0  0  0  0  0  0  0  0  0  0  0  0
   35.5290   34.7820   35.0940 C   0  0  0  0  0  0  0  0  0  0  0  0
   34.9220   35.0590   33.7400 C   0  0  0  0  0  0  0  0  0  0  0  0
  1 16  1  0
  2  4  1  0
  3 12  1  0
  5 15  1  0
  6  4  1  0
  6 11  1  0
  7  5  1  0
  8  2  1  0
  9  1  1  0
  9  7  1  0
 10  8  1  0
 10 13  2  0
 11  3  1  0
 12  9  1  0
 13  6  1  0
 14  8  2  0
 16 15  1  0
M  END
$$$$

     RDKit          3D

  7  7  0  0  0  0  0  0  0  0999 V2000
   36.8120   40.3990   25.4920 C   0  0  0  0  0  0  0  0  0  0  0  0
   38.5180   42.0650   25.6050 C   0  0  0  0  0  0  0  0  0  0  0  0
   37.9510   39.9310   26.5000 C   0  0  0  0  0  0  0  0  0  0  0  0
   40.2570   40.4540   25.9290 C   0  0  0  0  0  0  0  0  0  0  0  0
   40.0190   39.0020   25.7600 C   0  0  0  0  0  0  0  0  0  0  0  0
   38.5400   38.7090   25.8590 C   0  0  0  0  0  0  0  0  0  0  0  0
   38.9420   41.0570   26.4680 C   0  0  0  0  0  0  0  0  0  0  0  0
  3  1  1  0
  4  7  1  0
  5  6  1  0
  5  4  1  0
  6  3  1  0
  7  2  1  0
  7  3  1  0
M  END
$$$$

     RDKit          3D

  9  9  0  0  0  0  0  0  0  0999 V2000
   40.9570   39.5790   26.5820 O   0  0  0  0  0  0  0  0  0  0  0  0
   39.7340   37.1060   26.3370 O   0  0  0  0  0  0  0  0  0  0  0  0
   39.3600   39.4210   24.8110 N   0  0  0  0  0  0  0  0  0  0  0  0
   39.5940   38.9440   26.4440 P   0  0  0  0  0  0  0  0  0  0  0  0
   37.3020   40.3500   25.9600 S   0  0  0  0  0  0  0  0  0  0  0  0
   37.9600   39.7180   24.3970 C   0  0  0  0  0  0  0  0  0  0  0  0
   36.0360   39.4000   26.3560 C   0  0  0  0  0  0  0  0  0  0  0  0
   36.7630   41.8480   25.4450 C   0  0  0  0  0  0  0  0  0  0  0  0
   38.4900   40.1900   27.0250 C   0  0  0  0  0  0  0  0  0  0  0  0
  3  4  1  0
  4  2  2  0
  4  1  1  0
  4  9  1  0
  5  7  1  0
  5  9  1  0
  6  3  1  0
  6  5  1  0
  8  5  1  0
M  END
$$$$

     RDKit          3D

 16 15  0  0  0  0  0  0  0  0999 V2000
   38.1330   37.2710   29.9990 O   0  0  0  0  0  0  0  0  0  0  0  0
   37.1480   38.3560   30.0370 C   0  0  0  0  0  0  0  0  0  0  0  0
   36.0650   35.7840   34.7610 C   0  0  0  0  0  0  0  0  0  0  0  0
   37.2200   39.2510   28.8280 C   0  0  0  0  0  0  0  0  0  0  0  0
   34.6560   35.2710   32.7220 C   0  0  0  0  0  0  0  0  0  0  0  0
   34.8470   38.7680   29.6850 O   0  0  0  0  0  0  0  0  0  0  0  0
   33.1290   33.7230   34.3400 C   0  0  0  0  0  0  0  0  0  0  0  0
   35.7340   37.9490   30.0930 C   0  0  0  0  0  0  0  0  0  0  0  0
   35.9660   35.7110   33.2420 C   0  0  0  0  0  0  0  0  0  0  0  0
   38.8520   40.7340   29.8120 O   0  0  0  0  0  0  0  0  0  0  0  0
   35.2980   36.5990   30.1670 C   0  0  0  0  0  0  0  0  0  0  0  0
   37.8890   40.5380   29.0120 C   0  0  0  0  0  0  0  0  0  0  0  0
   33.9560   34.3650   33.5970 C   0  0  0  0  0  0  0  0  0  0  0  0
   37.4600   41.7370   28.1750 C   0  0  0  0  0  0  0  0  0  0  0  0
   33.0850   36.4400   31.2600 O   0  0  0  0  0  0  0  0  0  0  0  0
   34.4110   35.9530   31.2780 C   0  0  0  0  0  0  0  0  0  0  0  0
  2  1  1  0
  2  8  1  0
  4 12  1  0
  4  2  1  0
  5  9  1  0
  5 13  1  0
  6  8  2  0
  8 11  1  0
  9  3  1  0
 11 16  1  0
 12 10  2  0
 13  7  3  0
 14 12  1  0
 16 15  1  0
 16  5  1  0
M  END
$$$$

     RDKit          3D

 22 22  0  0  0  0  0  0  0  0999 V2000
   32.1450   35.3390   35.1400 C   0  0  0  0  0  0  0  0  0  0  0  0
   37.8880   43.2730   25.0750 C   0  0  0  0  0  0  0  0  0  0  0  0
   33.6550   36.2880   31.3550 N   0  0  0  0  0  0  0  0  0  0  0  0
   36.3280   39.8860   28.5110 C   0  0  0  0  0  0  0  0  0  0  0  0
   39.7060   41.7560   25.4770 O   0  0  0  0  0  0  0  0  0  0  0  0
   32.5290   35.8740   32.2560 C   0  0  0  0  0  0  0  0  0  0  0  0
   36.6960   38.4510   28.3880 C   0  0  0  0  0  0  0  0  0  0  0  0
   31.8260   35.8930   33.7110 C   0  0  0  0  0  0  0  0  0  0  0  0
   34.6970   37.3430   29.3250 C   0  0  0  0  0  0  0  0  0  0  0  0
   34.5950   41.1960   26.9040 Cl  0  0  0  0  0  0  0  0  0  0  0  0
   31.4380   36.3020   36.0610 O   0  0  0  0  0  0  0  0  0  0  0  0
   38.8030   42.4160   25.3050 N   0  0  0  0  0  0  0  0  0  0  0  0
   32.6480   37.9880   30.1860 F   0  0  0  0  0  0  0  0  0  0  0  0
   37.4750   37.7280   29.0060 O   0  0  0  0  0  0  0  0  0  0  0  0
   36.1750   40.4790   27.1240 C   0  0  0  0  0  0  0  0  0  0  0  0
   37.0490   42.1810   25.6250 C   0  0  0  0  0  0  0  0  0  0  0  0
   37.2850   40.9730   26.3740 O   0  0  0  0  0  0  0  0  0  0  0  0
   31.5060   35.7560   31.3150 O   0  0  0  0  0  0  0  0  0  0  0  0
   35.3190   38.7880   28.9550 C   0  0  0  0  0  0  0  0  0  0  0  0
   33.5030   34.6540   35.2170 C   0  0  0  0  0  0  0  0  0  0  0  0
   33.6510   37.2520   30.3870 C   0  0  0  0  0  0  0  0  0  0  0  0
   30.6190   36.6010   33.6020 O   0  0  0  0  0  0  0  0  0  0  0  0
  1 20  1  0
  1 11  1  0
  2 12  1  0
  2 16  1  0
  3  6  1  0
  4 15  1  0
  4 19  1  0
  6  8  1  0
  7  4  1  0
  7 19  1  0
  7 14  1  0
  8 22  1  0
  8  1  1  0
  9 21  1  0
 12  5  1  0
 13 21  1  0
 15 10  1  0
 16 17  1  0
 17 15  1  0
 18  6  2  0
 19  9  1  0
 21  3  2  3
M  END
$$$$

     RDKit          3D

 11 11  0  0  0  0  0  0  0  0999 V2000
   36.1830   34.6350   32.1980 O   0  0  0  0  0  0  0  0  0  0  0  0
   35.8080   39.3060   27.4100 O   0  0  0  0  0  0  0  0  0  0  0  0
   37.1720   37.9070   28.8900 C   0  0  0  0  0  0  0  0  0  0  0  0
   34.6270   38.3800   29.4200 C   0  0  0  0  0  0  0  0  0  0  0  0
   36.6520   36.4540   33.0720 O   0  0  0  0  0  0  0  0  0  0  0  0
   34.7800   37.2090   30.4180 C   0  0  0  0  0  0  0  0  0  0  0  0
   37.2640   36.8110   29.9650 C   0  0  0  0  0  0  0  0  0  0  0  0
   36.1340   35.9040   32.1170 C   0  0  0  0  0  0  0  0  0  0  0  0
   33.3610   38.1130   28.8160 O   0  0  0  0  0  0  0  0  0  0  0  0
   36.0250   36.7470   30.8780 C   0  0  0  0  0  0  0  0  0  0  0  0
   35.7730   38.2830   28.4080 C   0  0  0  0  0  0  0  0  0  0  0  0
  3  7  1  0
  4  9  1  0
  4  6  1  0
  6 10  1  0
  7 10  1  0
  8  1  2  0
  8  5  1  0
 10  8  1  0
 11  2  1  0
 11  3  1  0
 11  4  1  0
M  END
$$$$

     RDKit          3D

  9  9  0  0  0  0  0  0  0  0999 V2000
   36.1220   38.8030   28.9970 C   0  0  0  0  0  0  0  0  0  0  0  0
   38.0650   39.7720   26.9020 C   0  0  0  0  0  0  0  0  0  0  0  0
   38.2860   38.5230   27.7400 C   0  0  0  0  0  0  0  0  0  0  0  0
   35.2430   37.9510   29.5480 N   0  0  0  0  0  0  0  0  0  0  0  0
   39.2200   37.7520   27.3850 O   0  0  0  0  0  0  0  0  0  0  0  0
   35.8060   40.0290   28.9460 N   0  0  0  0  0  0  0  0  0  0  0  0
   35.7210   36.7610   29.3850 C   0  0  0  0  0  0  0  0  0  0  0  0
   37.2200   38.0310   28.5850 C   0  0  0  0  0  0  0  0  0  0  0  0
   36.9940   36.7080   28.8600 C   0  0  0  0  0  0  0  0  0  0  0  0
  1  4  1  0
  2  3  1  0
  3  8  1  0
  5  3  2  0
  6  1  1  0
  7  4  1  0
  8  9  1  0
  8  1  2  0
  9  7  2  0
M  END
$$$$

     RDKit          3D

 19 20  0  0  0  0  0  0  0  0999 V2000
   35.7630   39.1950   26.4380 N   0  0  0  0  0  0  0  0  0  0  0  0
   34.1620   36.3010   31.7290 N   0  0  0  0  0  0  0  0  0  0  0  0
   33.0610   37.1550   31.3030 C   0  0  0  0  0  0  0  0  0  0  0  0
   34.9950   36.9850   29.5100 C   0  0  0  0  0  0  0  0  0  0  0  0
   37.0650   38.3890   28.7210 N   0  0  0  0  0  0  0  0  0  0  0  0
   31.3220   36.1310   32.7090 C   0  0  0  0  0  0  0  0  0  0  0  0
   31.6000   34.7800   32.8450 C   0  0  0  0  0  0  0  0  0  0  0  0
   36.9130   39.3510   25.9640 C   0  0  0  0  0  0  0  0  0  0  0  0
   38.2590   39.1300   26.6170 C   0  0  0  0  0  0  0  0  0  0  0  0
   31.5970   37.0680   31.7180 C   0  0  0  0  0  0  0  0  0  0  0  0
   34.0870   35.5540   32.9980 C   0  0  0  0  0  0  0  0  0  0  0  0
   35.1970   35.9640   30.6720 C   0  0  0  0  0  0  0  0  0  0  0  0
   38.6760   38.2150   24.3010 O   0  0  0  0  0  0  0  0  0  0  0  0
   40.2230   39.4650   25.1960 O   0  0  0  0  0  0  0  0  0  0  0  0
   37.8650   39.4270   28.0940 C   0  0  0  0  0  0  0  0  0  0  0  0
   35.0800   39.0690   27.7280 C   0  0  0  0  0  0  0  0  0  0  0  0
   35.7490   38.0900   28.6760 C   0  0  0  0  0  0  0  0  0  0  0  0
   33.0430   34.3980   33.0400 C   0  0  0  0  0  0  0  0  0  0  0  0
   39.1580   38.8630   25.2950 C   0  0  0  0  0  0  0  0  0  0  0  0
  1 16  1  0
  2 11  1  0
  3 10  1  0
  3  2  1  0
  4 12  1  0
  6  7  1  0
  7 18  2  0
  8  1  1  0
  8  9  1  0
  9 19  1  0
  9 15  1  0
 10  6  1  0
 11 18  1  0
 12  2  1  0
 13 19  2  0
 14 19  1  0
 15  5  1  0
 16 17  1  0
 17  5  2  0
 17  4  1  0
M  END
$$$$

     RDKit          3D

 17 17  0  0  0  0  0  0  0  0999 V2000
   32.9960   35.9880   32.9950 C   0  0  0  0  0  0  0  0  0  0  0  0
   33.8390   34.7870   36.2940 O   0  0  0  0  0  0  0  0  0  0  0  0
   38.4230   37.9160   26.2330 O   0  0  0  0  0  0  0  0  0  0  0  0
   36.5240   39.0340   27.3050 C   0  0  0  0  0  0  0  0  0  0  0  0
   33.3780   34.9670   33.8700 C   0  0  0  0  0  0  0  0  0  0  0  0
   34.2850   33.9770   35.7840 C   0  0  0  0  0  0  0  0  0  0  0  0
   34.9840   33.1640   36.4240 O   0  0  0  0  0  0  0  0  0  0  0  0
   35.0850   38.8090   27.5440 C   0  0  0  0  0  0  0  0  0  0  0  0
   37.2470   38.0200   28.0520 O   0  0  0  0  0  0  0  0  0  0  0  0
   34.2240   34.1010   34.2450 C   0  0  0  0  0  0  0  0  0  0  0  0
   33.0160   35.3870   31.6740 N   0  0  0  0  0  0  0  0  0  0  0  0
   33.1250   36.1680   30.4330 C   0  0  0  0  0  0  0  0  0  0  0  0
   34.5730   36.4610   30.2490 C   0  0  0  0  0  0  0  0  0  0  0  0
   37.6210   38.1910   26.9070 C   0  0  0  0  0  0  0  0  0  0  0  0
   34.7280   36.7960   28.7990 C   0  0  0  0  0  0  0  0  0  0  0  0
   34.7200   38.2680   28.7400 C   0  0  0  0  0  0  0  0  0  0  0  0
   32.4900   37.0610   33.0220 O   0  0  0  0  0  0  0  0  0  0  0  0
  1 17  2  0
  1  5  1  0
  3 14  2  0
  4  8  1  0
  4  9  1  0
  5 10  1  0
  6  2  2  0
  6  7  1  0
  8 16  1  0
 10  6  1  0
 11  1  1  0
 12 11  1  0
 13 12  1  0
 14  4  1  0
 14  9  1  0
 15 13  1  0
 16 15  1  0
M  END
$$$$

     RDKit          3D

 19 21  0  0  0  0  0  0  0  0999 V2000
   35.4930   35.1800   31.1170 C   0  0  0  0  0  0  0  0  0  0  0  0
   36.9230   40.0930   28.5780 N   0  0  0  0  0  0  0  0  0  0  0  0
   35.6720   36.8330   29.3180 C   0  0  0  0  0  0  0  0  0  0  0  0
   37.1770   34.9270   34.7990 C   0  0  0  0  0  0  0  0  0  0  0  0
   38.7520   41.4710   28.0930 C   0  0  0  0  0  0  0  0  0  0  0  0
   34.8690   34.6060   32.2190 C   0  0  0  0  0  0  0  0  0  0  0  0
   37.3050   40.0600   30.9440 C   0  0  0  0  0  0  0  0  0  0  0  0
   36.5940   37.0930   30.3850 N   0  0  0  0  0  0  0  0  0  0  0  0
   38.4070   40.9020   30.3450 C   0  0  0  0  0  0  0  0  0  0  0  0
   38.2130   40.3610   28.9970 N   0  0  0  0  0  0  0  0  0  0  0  0
   37.4160   39.2990   29.6470 C   0  0  0  0  0  0  0  0  0  0  0  0
   36.3650   37.2800   28.1600 O   0  0  0  0  0  0  0  0  0  0  0  0
   37.1260   35.9670   32.6230 C   0  0  0  0  0  0  0  0  0  0  0  0
   34.0790   34.9780   34.4840 C   0  0  0  0  0  0  0  0  0  0  0  0
   40.2320   41.8000   28.4670 C   0  0  0  0  0  0  0  0  0  0  0  0
   37.7710   37.8630   30.1220 C   0  0  0  0  0  0  0  0  0  0  0  0
   35.1510   34.9950   33.4860 C   0  0  0  0  0  0  0  0  0  0  0  0
   36.4600   36.1600   31.3690 C   0  0  0  0  0  0  0  0  0  0  0  0
   36.4680   35.3320   33.6650 C   0  0  0  0  0  0  0  0  0  0  0  0
  1 18  2  0
  1  6  1  0
  2 10  1  0
  2 11  1  0
  3  8  1  0
  5 15  1  0
  6 17  2  0
  8 18  1  0
  9  7  1  0
 10  5  1  0
 10 11  1  0
 10  9  1  0
 11 16  1  0
 11  7  1  0
 12  3  1  0
 13 19  2  0
 16  8  1  0
 17 19  1  0
 17 14  1  0
 18 13  1  0
 19  4  1  0
M  END
$$$$

     RDKit          3D

  8  8  0  0  0  0  0  0  0  0999 V2000
   36.1090   37.6790   30.2190 N   0  0  0  0  0  0  0  0  0  0  0  0
   36.5170   34.9430   31.8350 S   0  0  0  0  0  0  0  0  0  0  0  0
   37.1200   36.9470   29.7850 C   0  0  0  0  0  0  0  0  0  0  0  0
   37.9320   37.5780   28.9370 N   0  0  0  0  0  0  0  0  0  0  0  0
   37.3570   38.7210   28.7270 N   0  0  0  0  0  0  0  0  0  0  0  0
   36.2170   38.7130   29.5100 C   0  0  0  0  0  0  0  0  0  0  0  0
   35.5220   40.0890   29.6130 C   0  0  0  0  0  0  0  0  0  0  0  0
   37.2330   35.4480   30.2550 C   0  0  0  0  0  0  0  0  0  0  0  0
  3  1  2  0
  3  8  1  0
  4  3  1  0
  5  4  2  0
  5  6  1  0
  6  7  1  0
  6  1  2  0
  8  2  1  0
M  END
$$$$

     RDKit          3D

 11 11  0  0  0  0  0  0  0  0999 V2000
   38.9120   37.8860   25.9090 O   0  0  0  0  0  0  0  0  0  0  0  0
   39.0390   39.0110   26.2000 C   0  0  0  0  0  0  0  0  0  0  0  0
   36.6530   40.5720   28.6070 C   0  0  0  0  0  0  0  0  0  0  0  0
   35.2540   40.8280   28.3400 C   0  0  0  0  0  0  0  0  0  0  0  0
   38.2930   39.8580   27.1090 C   0  0  0  0  0  0  0  0  0  0  0  0
   39.2360   40.5660   27.8920 O   0  0  0  0  0  0  0  0  0  0  0  0
   34.9040   38.4180   28.4410 C   0  0  0  0  0  0  0  0  0  0  0  0
   37.1950   39.3090   28.0150 C   0  0  0  0  0  0  0  0  0  0  0  0
   40.1390   39.5430   25.7640 O   0  0  0  0  0  0  0  0  0  0  0  0
   36.0280   38.5490   27.4220 C   0  0  0  0  0  0  0  0  0  0  0  0
   34.4020   39.7550   28.9520 C   0  0  0  0  0  0  0  0  0  0  0  0
  1  2  1  0
  2  5  1  0
  4  3  1  0
  4 11  1  0
  5  6  1  0
  5  8  1  0
  7 11  1  0
  8  3  1  0
  9  2  2  0
 10  8  1  0
 10  7  1  0
M  END
$$$$
