
     RDKit          3D

  4  5  0  0  0  0  0  0  0  0999 V2000
   41.3910   37.3750   29.7830 C   0  0  0  0  0  0  0  0  0  0  0  0
   42.2630   37.1200   30.9200 O   0  0  0  0  0  0  0  0  0  0  0  0
   40.9440   38.8220   29.8940 C   0  0  0  0  0  0  0  0  0  0  0  0
   42.4170   38.1520   29.9500 C   0  0  0  0  0  0  0  0  0  0  0  0
  1  3  1  0
  1  4  1  0
  1  2  1  0
  4  3  1  0
  4  2  1  0
M  END
$$$$

     RDKit          3D

  8  7  0  0  0  0  0  0  0  0999 V2000
   38.4990   35.3810   30.8970 O   0  0  0  0  0  0  0  0  0  0  0  0
   35.8370   37.1440   28.8150 C   0  0  0  0  0  0  0  0  0  0  0  0
   40.5130   35.8290   30.1610 O   0  0  0  0  0  0  0  0  0  0  0  0
   39.4290   35.0680   29.8800 C   0  0  0  0  0  0  0  0  0  0  0  0
   34.7260   36.0370   29.0920 N   0  0  0  0  0  0  0  0  0  0  0  0
   36.6990   36.8140   29.8650 C   0  0  0  0  0  0  0  0  0  0  0  0
   37.7750   37.5360   30.3590 O   0  0  0  0  0  0  0  0  0  0  0  0
   37.1780   35.5520   30.3660 C   0  0  0  0  0  0  0  0  0  0  0  0
  2  5  1  0
  2  6  1  0
  4  3  1  0
  4  1  1  0
  6  7  1  0
  6  8  1  0
  8  1  1  0
M  END
$$$$

     RDKit          3D

 13 13  0  0  0  0  0  0  0  0999 V2000
   41.0720   38.3220   29.1150 C   0  0  0  0  0  0  0  0  0  0  0  0
   41.7300   40.1310   27.9010 N   0  0  0  0  0  0  0  0  0  0  0  0
   40.8630   33.6910   30.5710 O   0  0  0  0  0  0  0  0  0  0  0  0
   39.1490   36.5770   29.9360 C   0  0  0  0  0  0  0  0  0  0  0  0
   39.6850   38.6450   28.9890 C   0  0  0  0  0  0  0  0  0  0  0  0
   38.7770   37.6810   29.2230 C   0  0  0  0  0  0  0  0  0  0  0  0
   40.5960   36.1260   30.0770 C   0  0  0  0  0  0  0  0  0  0  0  0
   38.2890   35.8920   30.6170 F   0  0  0  0  0  0  0  0  0  0  0  0
   41.3340   37.1990   29.8110 C   0  0  0  0  0  0  0  0  0  0  0  0
   41.4350   34.8660   30.1160 N   0  0  0  0  0  0  0  0  0  0  0  0
   42.4620   39.0830   28.6420 C   0  0  0  0  0  0  0  0  0  0  0  0
   41.0820   39.8190   26.7410 N   0  0  0  0  0  0  0  0  0  0  0  0
   42.8120   34.7370   29.7370 O   0  0  0  0  0  0  0  0  0  0  0  0
  1  9  1  0
  2 11  1  0
  4  7  1  0
  4  8  1  0
  5  1  2  0
  5  6  1  0
  6  4  2  0
  7 10  1  0
  9  7  2  0
 10  3  2  0
 11  1  1  0
 12  2  1  0
 13 10  2  0
M  END
$$$$

     RDKit          3D

 20 21  0  0  0  0  0  0  0  0999 V2000
   35.5510   31.9110   29.8420 C   0  0  0  0  0  0  0  0  0  0  0  0
   37.7570   38.0090   30.8290 O   0  0  0  0  0  0  0  0  0  0  0  0
   34.8800   33.8240   30.6040 C   0  0  0  0  0  0  0  0  0  0  0  0
   38.9910   36.0000   31.1610 C   0  0  0  0  0  0  0  0  0  0  0  0
   36.5880   32.5270   30.4960 C   0  0  0  0  0  0  0  0  0  0  0  0
   35.5270   36.5640   31.2180 O   0  0  0  0  0  0  0  0  0  0  0  0
   43.0980   38.0620   29.0960 O   0  0  0  0  0  0  0  0  0  0  0  0
   37.7860   31.9630   30.6630 O   0  0  0  0  0  0  0  0  0  0  0  0
   37.9190   36.7220   31.1010 C   0  0  0  0  0  0  0  0  0  0  0  0
   36.2290   33.8170   30.8440 C   0  0  0  0  0  0  0  0  0  0  0  0
   36.7080   36.0190   31.2450 C   0  0  0  0  0  0  0  0  0  0  0  0
   37.0770   34.7510   31.1730 C   0  0  0  0  0  0  0  0  0  0  0  0
   43.5650   35.9770   30.3630 O   0  0  0  0  0  0  0  0  0  0  0  0
   42.7000   37.1550   30.1730 P   0  0  0  0  0  0  0  0  0  0  0  0
   40.2870   36.3680   31.1270 C   0  0  0  0  0  0  0  0  0  0  0  0
   38.5200   34.7880   31.2650 C   0  0  0  0  0  0  0  0  0  0  0  0
   39.0380   33.7990   31.3550 O   0  0  0  0  0  0  0  0  0  0  0  0
   41.0800   36.6310   29.9870 C   0  0  0  0  0  0  0  0  0  0  0  0
   42.8580   38.0910   31.3120 O   0  0  0  0  0  0  0  0  0  0  0  0
   34.4770   32.6840   29.9970 N   0  0  0  0  0  0  0  0  0  0  0  0
  1 20  2  0
  1  5  1  0
  2  9  1  0
  3 10  2  0
  4 16  1  0
  5  8  1  0
  5 10  1  0
  7 14  2  0
  9  4  2  0
  9 11  1  0
 11  6  1  0
 12 10  1  0
 12 11  1  0
 12 16  1  0
 14 13  1  0
 14 19  1  0
 15  4  1  0
 16 17  2  0
 18 14  1  0
 18 15  2  3
 20  3  1  0
M  END
$$$$

     RDKit          3D

  9  8  0  0  0  0  0  0  0  0999 V2000
   37.6280   36.3420   29.9370 C   0  0  0  0  0  0  0  0  0  0  0  0
   37.6690   35.1310   30.1390 N   0  0  0  0  0  0  0  0  0  0  0  0
   39.4370   37.7550   29.7430 O   0  0  0  0  0  0  0  0  0  0  0  0
   38.2140   37.5970   29.0260 C   0  0  0  0  0  0  0  0  0  0  0  0
   37.1920   38.5900   29.3370 N   0  0  0  0  0  0  0  0  0  0  0  0
   41.1740   35.8730   29.6490 O   0  0  0  0  0  0  0  0  0  0  0  0
   41.0100   37.3990   29.4380 P   0  0  0  0  0  0  0  0  0  0  0  0
   41.6440   38.1640   30.6650 O   0  0  0  0  0  0  0  0  0  0  0  0
   41.5030   37.9740   28.0680 O   0  0  0  0  0  0  0  0  0  0  0  0
  1  2  2  0
  4  5  1  0
  4  3  1  0
  4  1  1  0
  7  6  1  0
  7  3  1  0
  7  8  1  0
  9  7  2  0
M  END
$$$$

     RDKit          3D

 14 14  0  0  0  0  0  0  0  0999 V2000
   41.6210   36.4760   30.3370 O   0  0  0  0  0  0  0  0  0  0  0  0
   41.0180   38.3270   29.0570 C   0  0  0  0  0  0  0  0  0  0  0  0
   37.3440   35.9210   31.1100 C   0  0  0  0  0  0  0  0  0  0  0  0
   39.3760   37.1040   30.5330 C   0  0  0  0  0  0  0  0  0  0  0  0
   42.8400   40.7040   26.5640 C   0  0  0  0  0  0  0  0  0  0  0  0
   37.2300   35.8280   32.4490 F   0  0  0  0  0  0  0  0  0  0  0  0
   40.8080   37.1470   30.0160 C   0  0  0  0  0  0  0  0  0  0  0  0
   41.8590   40.0610   27.3800 C   0  0  0  0  0  0  0  0  0  0  0  0
   38.6350   35.9720   30.6000 N   0  0  0  0  0  0  0  0  0  0  0  0
   35.9900   35.4660   31.1360 C   0  0  0  0  0  0  0  0  0  0  0  0
   41.7880   39.1030   28.5720 C   0  0  0  0  0  0  0  0  0  0  0  0
   41.0860   39.5180   26.3390 C   0  0  0  0  0  0  0  0  0  0  0  0
   38.8350   38.1600   30.8380 O   0  0  0  0  0  0  0  0  0  0  0  0
   42.1970   41.5000   27.7220 C   0  0  0  0  0  0  0  0  0  0  0  0
  2  7  1  0
  3 10  1  0
  3  6  1  0
  4  9  1  0
  4 13  2  0
  5  8  1  0
  5 14  1  0
  7  1  2  0
  7  4  1  0
  8 14  1  0
  8 11  1  0
  9  3  1  0
 11  2  2  3
 12  8  1  0
M  END
$$$$

     RDKit          3D

  8  7  0  0  0  0  0  0  0  0999 V2000
   41.8900   40.2810   29.7740 O   0  0  0  0  0  0  0  0  0  0  0  0
   41.8920   36.0310   28.4810 O   0  0  0  0  0  0  0  0  0  0  0  0
   42.5510   39.4500   29.1220 C   0  0  0  0  0  0  0  0  0  0  0  0
   42.0000   39.0950   27.6490 C   0  0  0  0  0  0  0  0  0  0  0  0
   41.9710   36.5990   27.3630 C   0  0  0  0  0  0  0  0  0  0  0  0
   43.4020   39.1610   29.5340 O   0  0  0  0  0  0  0  0  0  0  0  0
   42.5900   38.0130   27.1670 C   0  0  0  0  0  0  0  0  0  0  0  0
   41.8150   35.9460   26.3000 O   0  0  0  0  0  0  0  0  0  0  0  0
  3  6  2  0
  3  1  1  0
  4  3  1  0
  5  2  1  0
  7  5  1  0
  7  4  1  0
  8  5  2  0
M  END
$$$$

     RDKit          3D

 12 12  0  0  0  0  0  0  0  0999 V2000
   40.4690   39.9020   27.7560 C   0  0  0  0  0  0  0  0  0  0  0  0
   39.0500   38.2910   29.0570 C   0  0  0  0  0  0  0  0  0  0  0  0
   40.3290   34.7930   29.5600 O   0  0  0  0  0  0  0  0  0  0  0  0
   42.7790   40.2190   28.5870 O   0  0  0  0  0  0  0  0  0  0  0  0
   42.4370   34.8740   30.3650 O   0  0  0  0  0  0  0  0  0  0  0  0
   41.9060   36.0060   28.1860 C   0  0  0  0  0  0  0  0  0  0  0  0
   40.2140   37.6790   29.7900 C   0  0  0  0  0  0  0  0  0  0  0  0
   42.5280   37.3090   28.7080 C   0  0  0  0  0  0  0  0  0  0  0  0
   39.1920   39.4650   28.1950 C   0  0  0  0  0  0  0  0  0  0  0  0
   41.5820   38.2930   29.4100 C   0  0  0  0  0  0  0  0  0  0  0  0
   41.6540   39.5750   28.6160 C   0  0  0  0  0  0  0  0  0  0  0  0
   41.6320   34.9720   29.2550 C   0  0  0  0  0  0  0  0  0  0  0  0
  1  9  1  0
  1 11  1  0
  2  7  1  0
  6  8  1  0
  6 12  1  0
  9  2  2  0
 10  8  1  0
 10  7  1  0
 11  4  1  0
 11 10  1  0
 12  3  2  0
 12  5  1  0
M  END
$$$$

     RDKit          3D

 10 10  0  0  0  0  0  0  0  0999 V2000
   42.4790   36.3090   28.7510 N   0  0  0  0  0  0  0  0  0  0  0  0
   42.3590   38.7080   29.6520 C   0  0  0  0  0  0  0  0  0  0  0  0
   39.7870   38.6460   28.2320 N   0  0  0  0  0  0  0  0  0  0  0  0
   43.3360   39.3630   29.7250 O   0  0  0  0  0  0  0  0  0  0  0  0
   42.0030   37.5810   28.8870 C   0  0  0  0  0  0  0  0  0  0  0  0
   41.5360   35.7750   27.6230 C   0  0  0  0  0  0  0  0  0  0  0  0
   41.6230   39.0230   30.5340 O   0  0  0  0  0  0  0  0  0  0  0  0
   41.0760   38.0700   27.7130 C   0  0  0  0  0  0  0  0  0  0  0  0
   39.7720   36.5580   26.2490 O   0  0  0  0  0  0  0  0  0  0  0  0
   41.0400   36.8110   26.8180 N   0  0  0  0  0  0  0  0  0  0  0  0
  1  5  1  0
  2  4  2  0
  2  7  1  0
  5  2  1  0
  6  1  1  0
  8  3  1  0
  8  5  1  0
  9 10  1  0
 10  6  1  0
 10  8  1  0
M  END
$$$$

     RDKit          3D

 11 12  0  0  0  0  0  0  0  0999 V2000
   39.2050   35.7050   31.2380 N   0  0  0  0  0  0  0  0  0  0  0  0
   37.8960   36.0240   30.9380 C   0  0  0  0  0  0  0  0  0  0  0  0
   35.1930   36.0550   30.3610 C   0  0  0  0  0  0  0  0  0  0  0  0
   39.3230   34.3110   31.2840 C   0  0  0  0  0  0  0  0  0  0  0  0
   37.1900   34.8770   30.9170 C   0  0  0  0  0  0  0  0  0  0  0  0
   37.3050   37.2240   30.5890 C   0  0  0  0  0  0  0  0  0  0  0  0
   40.3710   36.5690   31.4890 C   0  0  0  0  0  0  0  0  0  0  0  0
   38.0720   33.8310   31.0300 N   0  0  0  0  0  0  0  0  0  0  0  0
   33.8150   36.0180   30.1010 O   0  0  0  0  0  0  0  0  0  0  0  0
   35.8070   34.8290   30.6850 C   0  0  0  0  0  0  0  0  0  0  0  0
   35.9670   37.2010   30.2100 C   0  0  0  0  0  0  0  0  0  0  0  0
  1  4  1  0
  1  7  1  0
  2  1  1  0
  3 10  1  0
  5  2  1  0
  5  8  1  0
  6  2  2  0
  8  4  2  0
  9  3  1  0
 10  5  2  0
 11  3  2  0
 11  6  1  0
M  END
$$$$

     RDKit          3D

  8  7  0  0  0  0  0  0  0  0999 V2000
   35.6840   38.2760   28.2480 O   0  0  0  0  0  0  0  0  0  0  0  0
   38.3410   36.3500   29.5450 C   0  0  0  0  0  0  0  0  0  0  0  0
   37.6470   37.4320   29.1170 N   0  0  0  0  0  0  0  0  0  0  0  0
   35.6510   36.1390   28.9490 N   0  0  0  0  0  0  0  0  0  0  0  0
   39.7290   36.5060   30.1180 C   0  0  0  0  0  0  0  0  0  0  0  0
   40.4490   35.2500   30.0790 N   0  0  0  0  0  0  0  0  0  0  0  0
   37.9200   35.2330   29.3750 O   0  0  0  0  0  0  0  0  0  0  0  0
   36.3320   37.4030   28.7900 C   0  0  0  0  0  0  0  0  0  0  0  0
  1  8  2  0
  2  5  1  0
  3  2  1  0
  6  5  1  0
  7  2  2  0
  8  4  1  0
  8  3  1  0
M  END
$$$$

     RDKit          3D

 11 11  0  0  0  0  0  0  0  0999 V2000
   36.1130   37.2650   30.5840 C   0  0  0  0  0  0  0  0  0  0  0  0
   38.1690   32.6920   31.8570 C   0  0  0  0  0  0  0  0  0  0  0  0
   39.0660   33.3700   30.8740 C   0  0  0  0  0  0  0  0  0  0  0  0
   38.4000   31.2270   32.1650 C   0  0  0  0  0  0  0  0  0  0  0  0
   38.4230   36.8770   30.0830 C   0  0  0  0  0  0  0  0  0  0  0  0
   39.0340   34.8140   31.0770 N   0  0  0  0  0  0  0  0  0  0  0  0
   37.3770   33.3610   32.6120 O   0  0  0  0  0  0  0  0  0  0  0  0
   39.6330   37.0590   30.8180 N   0  0  0  0  0  0  0  0  0  0  0  0
   37.3560   37.9480   30.0310 C   0  0  0  0  0  0  0  0  0  0  0  0
   36.3990   35.8210   30.9340 C   0  0  0  0  0  0  0  0  0  0  0  0
   37.9030   35.6170   30.7100 C   0  0  0  0  0  0  0  0  0  0  0  0
  1 10  1  0
  2  4  1  0
  2  7  2  0
  3  6  1  0
  3  2  1  0
  5 11  1  0
  5  8  1  0
  9  5  1  0
  9  1  2  0
 11 10  1  0
 11  6  1  0
M  END
$$$$

     RDKit          3D

 19 19  0  0  0  0  0  0  0  0999 V2000
   35.3700   35.1770   31.4560 N   0  0  0  0  0  0  0  0  0  0  0  0
   37.8640   36.1500   31.5550 C   0  0  0  0  0  0  0  0  0  0  0  0
   35.0760   32.9720   33.2300 O   0  0  0  0  0  0  0  0  0  0  0  0
   39.1950   33.9910   31.1370 C   0  0  0  0  0  0  0  0  0  0  0  0
   43.9080   36.6020   29.6230 C   0  0  0  0  0  0  0  0  0  0  0  0
   41.4080   38.5350   30.7890 N   0  0  0  0  0  0  0  0  0  0  0  0
   38.9250   36.9270   30.8850 C   0  0  0  0  0  0  0  0  0  0  0  0
   36.4960   34.0500   31.8270 C   0  0  0  0  0  0  0  0  0  0  0  0
   38.9040   38.0940   30.6540 O   0  0  0  0  0  0  0  0  0  0  0  0
   34.9540   30.5950   32.0920 O   0  0  0  0  0  0  0  0  0  0  0  0
   42.6750   36.5340   30.5020 C   0  0  0  0  0  0  0  0  0  0  0  0
   37.1600   30.8050   31.3600 O   0  0  0  0  0  0  0  0  0  0  0  0
   43.5940   36.4330   28.2090 O   0  0  0  0  0  0  0  0  0  0  0  0
   40.3440   34.7590   30.7050 C   0  0  0  0  0  0  0  0  0  0  0  0
   41.3010   37.1890   30.0800 C   0  0  0  0  0  0  0  0  0  0  0  0
   37.8860   34.5750   31.6010 C   0  0  0  0  0  0  0  0  0  0  0  0
   40.3020   36.2770   30.9070 C   0  0  0  0  0  0  0  0  0  0  0  0
   36.0610   32.7140   32.2850 C   0  0  0  0  0  0  0  0  0  0  0  0
   36.0130   31.4580   31.6200 C   0  0  0  0  0  0  0  0  0  0  0  0
  2 16  1  0
  4 16  1  0
  5 11  1  0
  7 17  1  0
  7  2  1  0
  8  1  1  0
  8 18  1  0
  9  7  2  0
 12 19  2  0
 13  5  1  0
 14 17  1  0
 14  4  2  0
 15 11  1  0
 15  6  1  0
 16  8  1  0
 17 15  1  0
 18  3  1  0
 19 10  1  0
 19 18  1  0
M  END
$$$$

     RDKit          3D

 19 19  0  0  0  0  0  0  0  0999 V2000
   38.3230   35.2970   31.2080 C   0  0  0  0  0  0  0  0  0  0  0  0
   41.5390   39.7140   31.7420 O   0  0  0  0  0  0  0  0  0  0  0  0
   44.9360   38.8680   32.4270 C   0  0  0  0  0  0  0  0  0  0  0  0
   42.8750   35.9180   29.0260 C   0  0  0  0  0  0  0  0  0  0  0  0
   42.1770   34.8860   28.7390 O   0  0  0  0  0  0  0  0  0  0  0  0
   44.0670   35.9350   28.7830 O   0  0  0  0  0  0  0  0  0  0  0  0
   43.5740   39.9470   33.6630 C   0  0  0  0  0  0  0  0  0  0  0  0
   36.9400   32.3390   32.4330 C   0  0  0  0  0  0  0  0  0  0  0  0
   37.3010   34.1940   30.7990 C   0  0  0  0  0  0  0  0  0  0  0  0
   40.1230   36.5360   30.9730 C   0  0  0  0  0  0  0  0  0  0  0  0
   39.5530   36.8240   32.2300 C   0  0  0  0  0  0  0  0  0  0  0  0
   39.3040   35.6890   30.2310 C   0  0  0  0  0  0  0  0  0  0  0  0
   38.4560   36.0550   32.3980 N   0  0  0  0  0  0  0  0  0  0  0  0
   42.5200   39.0060   31.5480 C   0  0  0  0  0  0  0  0  0  0  0  0
   36.2840   33.4930   31.6900 C   0  0  0  0  0  0  0  0  0  0  0  0
   43.4810   38.8130   32.6650 C   0  0  0  0  0  0  0  0  0  0  0  0
   42.3850   37.1090   29.8940 C   0  0  0  0  0  0  0  0  0  0  0  0
   41.2370   36.8970   30.6180 C   0  0  0  0  0  0  0  0  0  0  0  0
   42.7430   38.2910   30.3570 C   0  0  0  0  0  0  0  0  0  0  0  0
  1 13  1  0
  3 16  1  0
  4 17  1  0
  5  4  2  0
  6  4  1  0
  9  1  1  0
  9 15  1  0
 10 11  1  0
 11 13  2  0
 12 10  1  0
 12  1  2  0
 14  2  2  0
 14 16  1  0
 15  8  1  0
 16  7  1  0
 17 19  1  0
 17 18  2  0
 18 10  2  0
 19 14  1  0
M  END
$$$$

     RDKit          3D

  5  4  0  0  0  0  0  0  0  0999 V2000
   41.4260   36.2970   26.8050 O   0  0  0  0  0  0  0  0  0  0  0  0
   40.5130   37.2590   28.8020 C   0  0  0  0  0  0  0  0  0  0  0  0
   42.7320   37.4510   28.1120 O   0  0  0  0  0  0  0  0  0  0  0  0
   39.2800   36.2100   28.7120 Cl  0  0  0  0  0  0  0  0  0  0  0  0
   41.6770   36.8840   27.8770 C   0  0  0  0  0  0  0  0  0  0  0  0
  1  5  2  0
  4  2  1  0
  5  3  1  0
  5  2  1  0
M  END
$$$$

     RDKit          3D

 10 10  0  0  0  0  0  0  0  0999 V2000
   40.5470   40.2810   27.4860 C   0  0  0  0  0  0  0  0  0  0  0  0
   40.4360   37.9450   28.1200 N   0  0  0  0  0  0  0  0  0  0  0  0
   42.0270   39.2430   29.0020 N   0  0  0  0  0  0  0  0  0  0  0  0
   40.9980   39.1430   28.2110 C   0  0  0  0  0  0  0  0  0  0  0  0
   42.0000   40.5670   29.2130 C   0  0  0  0  0  0  0  0  0  0  0  0
   42.5610   41.3570   29.0480 O   0  0  0  0  0  0  0  0  0  0  0  0
   41.5510   37.0840   29.9270 O   0  0  0  0  0  0  0  0  0  0  0  0
   41.3640   36.8900   28.5970 C   0  0  0  0  0  0  0  0  0  0  0  0
   41.0570   35.7010   28.2400 O   0  0  0  0  0  0  0  0  0  0  0  0
   42.2900   35.6340   28.4200 C   0  0  0  0  0  0  0  0  0  0  0  0
  2  4  1  0
  2  8  1  0
  3  5  1  0
  4  1  1  0
  4  3  1  0
  6  5  2  0
  8  7  1  0
  9 10  1  0
  9  8  1  0
 10  8  1  0
M  END
$$$$

     RDKit          3D

 33 35  0  0  0  0  0  0  0  0999 V2000
   31.9320   33.1390   34.1860 C   0  0  0  0  0  0  0  0  0  0  0  0
   35.6610   36.2780   31.6690 C   0  0  0  0  0  0  0  0  0  0  0  0
   41.7250   37.9990   30.4070 N   0  0  0  0  0  0  0  0  0  0  0  0
   39.5220   36.8340   30.0610 C   0  0  0  0  0  0  0  0  0  0  0  0
   43.8420   39.2300   32.0340 C   0  0  0  0  0  0  0  0  0  0  0  0
   43.6670   39.9360   28.1110 C   0  0  0  0  0  0  0  0  0  0  0  0
   31.1120   32.1770   36.4470 C   0  0  0  0  0  0  0  0  0  0  0  0
   33.0490   33.3350   32.1010 C   0  0  0  0  0  0  0  0  0  0  0  0
   33.9230   34.5600   31.8380 C   0  0  0  0  0  0  0  0  0  0  0  0
   32.0900   32.7470   32.9210 C   0  0  0  0  0  0  0  0  0  0  0  0
   44.2350   37.2180   29.3760 C   0  0  0  0  0  0  0  0  0  0  0  0
   37.9280   35.5150   31.2840 C   0  0  0  0  0  0  0  0  0  0  0  0
   41.8990   35.7440   29.7440 S   0  0  0  0  0  0  0  0  0  0  0  0
   42.9660   37.1190   30.2820 C   0  0  0  0  0  0  0  0  0  0  0  0
   39.2250   35.7560   30.8970 C   0  0  0  0  0  0  0  0  0  0  0  0
   35.5130   34.8190   32.0630 C   0  0  0  0  0  0  0  0  0  0  0  0
   41.6150   38.2750   31.7950 C   0  0  0  0  0  0  0  0  0  0  0  0
   31.0450   32.1860   32.4980 F   0  0  0  0  0  0  0  0  0  0  0  0
   43.8790   39.8480   29.6700 C   0  0  0  0  0  0  0  0  0  0  0  0
   43.9870   36.5630   28.0140 C   0  0  0  0  0  0  0  0  0  0  0  0
   32.6630   33.1290   30.6450 F   0  0  0  0  0  0  0  0  0  0  0  0
   37.1800   37.3850   29.9630 C   0  0  0  0  0  0  0  0  0  0  0  0
   38.4750   37.5710   29.4900 C   0  0  0  0  0  0  0  0  0  0  0  0
   42.8930   38.2150   32.5840 C   0  0  0  0  0  0  0  0  0  0  0  0
   40.8580   37.1510   29.8680 C   0  0  0  0  0  0  0  0  0  0  0  0
   32.1150   31.1680   36.1950 O   0  0  0  0  0  0  0  0  0  0  0  0
   43.1300   39.8620   30.9270 O   0  0  0  0  0  0  0  0  0  0  0  0
   44.0200   41.0900   28.8220 C   0  0  0  0  0  0  0  0  0  0  0  0
   30.8020   32.7380   35.0410 C   0  0  0  0  0  0  0  0  0  0  0  0
   34.1330   34.6390   32.7430 C   0  0  0  0  0  0  0  0  0  0  0  0
   36.9270   36.4050   30.8930 C   0  0  0  0  0  0  0  0  0  0  0  0
   32.8410   33.9450   34.5870 F   0  0  0  0  0  0  0  0  0  0  0  0
   44.3870   40.0020   26.8110 C   0  0  0  0  0  0  0  0  0  0  0  0
  1 32  1  0
  1 29  1  0
  2 16  1  0
  3 17  1  0
  4 15  1  0
  5 24  1  0
  6 33  1  0
  6 28  1  0
  6 19  1  0
  8 21  1  0
  8 10  1  0
  9  8  1  0
  9 30  1  0
 10  1  2  3
 13 25  1  0
 13 14  1  0
 14 11  1  0
 14  3  1  0
 15 12  2  0
 16 30  1  0
 17 24  1  0
 18 10  1  0
 19 27  1  0
 20 11  1  0
 22 31  2  0
 23 22  1  0
 23  4  2  0
 25  4  1  0
 25  3  1  0
 26  7  1  0
 27  5  1  0
 28 19  1  0
 29  7  1  0
 31 12  1  0
 31  2  1  0
M  END
$$$$

     RDKit          3D

 16 16  0  0  0  0  0  0  0  0999 V2000
   37.4790   36.5620   30.6730 O   0  0  0  0  0  0  0  0  0  0  0  0
   32.3440   36.1370   31.0130 C   0  0  0  0  0  0  0  0  0  0  0  0
   33.8800   35.1550   32.4240 C   0  0  0  0  0  0  0  0  0  0  0  0
   40.1860   35.6430   31.3750 C   0  0  0  0  0  0  0  0  0  0  0  0
   37.4140   35.5150   31.4590 C   0  0  0  0  0  0  0  0  0  0  0  0
   34.9450   35.5890   31.6160 C   0  0  0  0  0  0  0  0  0  0  0  0
   40.8480   35.3210   30.0950 C   0  0  0  0  0  0  0  0  0  0  0  0
   38.8000   34.5090   31.8330 S   0  0  0  0  0  0  0  0  0  0  0  0
   42.6350   35.1960   28.8250 O   0  0  0  0  0  0  0  0  0  0  0  0
   36.1980   35.1970   31.9740 N   0  0  0  0  0  0  0  0  0  0  0  0
   40.5610   36.5510   32.0860 O   0  0  0  0  0  0  0  0  0  0  0  0
   42.8590   36.7660   30.5830 O   0  0  0  0  0  0  0  0  0  0  0  0
   34.6710   36.3370   30.5020 N   0  0  0  0  0  0  0  0  0  0  0  0
   42.2530   35.8440   29.8200 C   0  0  0  0  0  0  0  0  0  0  0  0
   32.6300   35.3460   32.1330 C   0  0  0  0  0  0  0  0  0  0  0  0
   33.3820   36.5940   30.2200 C   0  0  0  0  0  0  0  0  0  0  0  0
  1  5  2  0
  2 15  1  0
  4  8  1  0
  4 11  2  0
  5  8  1  0
  5 10  1  0
  6 10  1  0
  6  3  1  0
  7  4  1  0
  9 14  2  0
 13  6  2  0
 14  7  1  0
 14 12  1  0
 15  3  2  0
 16 13  1  0
 16  2  2  0
M  END
$$$$

     RDKit          3D

 16 15  0  0  0  0  0  0  0  0999 V2000
   34.8460   29.0160   31.8390 C   0  0  0  0  0  0  0  0  0  0  0  0
   39.3290   34.4110   31.5360 C   0  0  0  0  0  0  0  0  0  0  0  0
   38.4760   33.5660   32.2170 C   0  0  0  0  0  0  0  0  0  0  0  0
   39.9290   35.4780   31.0980 C   0  0  0  0  0  0  0  0  0  0  0  0
   35.4200   31.4520   31.9980 N   0  0  0  0  0  0  0  0  0  0  0  0
   43.6700   36.0500   30.3210 C   0  0  0  0  0  0  0  0  0  0  0  0
   37.0550   33.2520   31.6810 C   0  0  0  0  0  0  0  0  0  0  0  0
   40.7210   36.7940   31.0880 C   0  0  0  0  0  0  0  0  0  0  0  0
   35.5380   28.5550   32.7890 N   0  0  0  0  0  0  0  0  0  0  0  0
   36.6100   31.8380   32.0120 C   0  0  0  0  0  0  0  0  0  0  0  0
   41.5490   37.0550   30.0370 C   0  0  0  0  0  0  0  0  0  0  0  0
   34.4100   28.8790   30.6060 C   0  0  0  0  0  0  0  0  0  0  0  0
   42.3380   35.8920   28.1760 C   0  0  0  0  0  0  0  0  0  0  0  0
   37.6450   30.9390   32.0150 O   0  0  0  0  0  0  0  0  0  0  0  0
   42.4210   35.9620   29.5740 C   0  0  0  0  0  0  0  0  0  0  0  0
   34.8340   30.2900   32.4960 C   0  0  0  0  0  0  0  0  0  0  0  0
  1 16  1  0
  1  9  2  0
  2  3  1  0
  4  2  3  0
  5 10  1  0
  5 16  1  0
  7 10  1  0
  7  3  1  0
  8  4  1  0
 10 14  2  0
 11  8  1  0
 12  1  1  0
 13 15  1  0
 15 11  1  0
 15  6  1  0
M  END
$$$$

     RDKit          3D

 16 17  0  0  0  0  0  0  0  0999 V2000
   33.7660   33.4200   32.9250 C   0  0  0  0  0  0  0  0  0  0  0  0
   36.0920   38.1490   29.5290 C   0  0  0  0  0  0  0  0  0  0  0  0
   34.3590   34.7430   31.0930 N   0  0  0  0  0  0  0  0  0  0  0  0
   33.8100   30.9920   32.4540 C   0  0  0  0  0  0  0  0  0  0  0  0
   35.0640   35.8110   30.7150 C   0  0  0  0  0  0  0  0  0  0  0  0
   36.9710   37.1680   30.0330 C   0  0  0  0  0  0  0  0  0  0  0  0
   31.9730   35.0900   33.7250 C   0  0  0  0  0  0  0  0  0  0  0  0
   33.6450   34.7160   32.2180 C   0  0  0  0  0  0  0  0  0  0  0  0
   32.8100   35.7120   32.8280 C   0  0  0  0  0  0  0  0  0  0  0  0
   32.2980   32.0590   31.5580 O   0  0  0  0  0  0  0  0  0  0  0  0
   36.4690   35.9240   30.5390 C   0  0  0  0  0  0  0  0  0  0  0  0
   34.4570   36.9760   30.6110 C   0  0  0  0  0  0  0  0  0  0  0  0
   33.5270   32.3520   31.8430 C   0  0  0  0  0  0  0  0  0  0  0  0
   34.7740   38.0460   29.8650 C   0  0  0  0  0  0  0  0  0  0  0  0
   32.5140   33.4900   34.1910 S   0  0  0  0  0  0  0  0  0  0  0  0
   38.0950   37.5700   29.8910 O   0  0  0  0  0  0  0  0  0  0  0  0
  1 13  1  0
  1 15  1  0
  2 14  2  0
  2  6  1  0
  5  3  1  0
  6 11  1  0
  7 15  1  0
  8  3  1  0
  8  9  1  0
  8  1  1  0
  9  7  1  0
 10 13  1  0
 11  5  2  0
 12  5  1  0
 13  4  1  0
 14 12  1  0
 16  6  2  0
M  END
$$$$
