
     RDKit          3D

  4  3  0  0  0  0  0  0  0  0999 V2000
   44.1910   36.9310   27.9080 C   0  0  0  0  0  0  0  0  0  0  0  0
   43.1340   38.2730   26.3320 O   0  0  0  0  0  0  0  0  0  0  0  0
   42.1130   36.0530   26.9590 C   0  0  0  0  0  0  0  0  0  0  0  0
   43.1010   37.1930   26.8620 C   0  0  0  0  0  0  0  0  0  0  0  0
  2  4  2  0
  4  3  1  0
  4  1  1  0
M  END
$$$$

     RDKit          3D

 13 14  0  0  0  0  0  0  0  0999 V2000
   42.8740   38.2060   24.3700 C   0  0  0  0  0  0  0  0  0  0  0  0
   40.4930   37.5900   25.8360 C   0  0  0  0  0  0  0  0  0  0  0  0
   39.1870   38.0690   25.8950 C   0  0  0  0  0  0  0  0  0  0  0  0
   38.1050   37.9400   26.7720 C   0  0  0  0  0  0  0  0  0  0  0  0
   40.8670   34.6920   27.9130 O   0  0  0  0  0  0  0  0  0  0  0  0
   44.0020   37.0260   24.8470 S   0  0  0  0  0  0  0  0  0  0  0  0
   40.1590   35.5140   27.0130 C   0  0  0  0  0  0  0  0  0  0  0  0
   41.3570   38.0300   24.6280 C   0  0  0  0  0  0  0  0  0  0  0  0
   42.5310   36.7900   27.0120 C   0  0  0  0  0  0  0  0  0  0  0  0
   38.8670   35.6570   27.6860 N   0  0  0  0  0  0  0  0  0  0  0  0
   38.0690   36.8230   27.8370 C   0  0  0  0  0  0  0  0  0  0  0  0
   40.9890   36.7080   26.7300 C   0  0  0  0  0  0  0  0  0  0  0  0
   43.9290   37.2960   26.5950 C   0  0  0  0  0  0  0  0  0  0  0  0
  1  8  1  0
  1  6  1  0
  2  3  2  0
  2 12  1  0
  3  4  1  0
  4 11  1  0
  6 13  1  0
  7 10  1  0
  7  5  1  0
  8  2  1  0
 10 11  1  0
 12  9  1  0
 12  7  1  0
 13  9  1  0
M  END
$$$$

     RDKit          3D

 12 11  0  0  0  0  0  0  0  0999 V2000
   44.0490   37.7660   30.2690 C   0  0  0  0  0  0  0  0  0  0  0  0
   39.8830   34.8290   29.9590 O   0  0  0  0  0  0  0  0  0  0  0  0
   41.3830   35.0630   28.4360 N   0  0  0  0  0  0  0  0  0  0  0  0
   42.1210   37.5880   29.5440 O   0  0  0  0  0  0  0  0  0  0  0  0
   40.8960   35.3060   27.1060 C   0  0  0  0  0  0  0  0  0  0  0  0
   41.1820   37.3970   25.8530 O   0  0  0  0  0  0  0  0  0  0  0  0
   43.9970   35.7850   27.9520 S   0  0  0  0  0  0  0  0  0  0  0  0
   39.5540   35.7020   26.9380 O   0  0  0  0  0  0  0  0  0  0  0  0
   40.8570   35.5620   29.5920 C   0  0  0  0  0  0  0  0  0  0  0  0
   41.2720   36.8290   30.3490 C   0  0  0  0  0  0  0  0  0  0  0  0
   41.8140   36.1160   26.1890 C   0  0  0  0  0  0  0  0  0  0  0  0
   43.4030   37.0680   29.0960 C   0  0  0  0  0  0  0  0  0  0  0  0
  3  9  1  0
  4 10  1  0
  5  3  1  0
  6 11  1  0
  7 12  1  0
  8  5  2  0
  9  2  2  0
  9 10  1  0
 11  5  1  0
 12  4  1  0
 12  1  1  0
M  END
$$$$

     RDKit          3D

 11 12  0  0  0  0  0  0  0  0999 V2000
   40.0360   37.8260   28.8380 O   0  0  0  0  0  0  0  0  0  0  0  0
   40.6350   34.1290   26.9460 N   0  0  0  0  0  0  0  0  0  0  0  0
   39.1490   35.0410   29.9800 C   0  0  0  0  0  0  0  0  0  0  0  0
   39.4140   33.1390   28.7970 C   0  0  0  0  0  0  0  0  0  0  0  0
   39.8320   35.3910   28.8150 C   0  0  0  0  0  0  0  0  0  0  0  0
   40.2400   36.6090   26.9510 N   0  0  0  0  0  0  0  0  0  0  0  0
   39.9980   34.2010   28.1330 C   0  0  0  0  0  0  0  0  0  0  0  0
   40.0040   36.6820   28.4000 C   0  0  0  0  0  0  0  0  0  0  0  0
   38.8890   33.7400   29.9290 C   0  0  0  0  0  0  0  0  0  0  0  0
   41.0960   35.5040   26.5560 C   0  0  0  0  0  0  0  0  0  0  0  0
   39.1370   36.1080   30.7540 O   0  0  0  0  0  0  0  0  0  0  0  0
  2  7  1  0
  3 11  1  0
  4  9  1  0
  5  3  2  0
  6  8  1  0
  7  4  2  0
  7  5  1  0
  8  5  1  0
  8  1  2  0
  9  3  1  0
 10  2  1  0
 10  6  1  0
M  END
$$$$

     RDKit          3D

 10 10  0  0  0  0  0  0  0  0999 V2000
   39.5910   35.2170   31.0550 C   0  0  0  0  0  0  0  0  0  0  0  0
   38.9760   34.9240   32.4430 O   0  0  0  0  0  0  0  0  0  0  0  0
   39.9220   34.3830   30.0090 C   0  0  0  0  0  0  0  0  0  0  0  0
   40.4410   34.8560   28.8060 C   0  0  0  0  0  0  0  0  0  0  0  0
   39.8520   36.5500   30.9560 C   0  0  0  0  0  0  0  0  0  0  0  0
   40.5640   36.2930   28.6750 C   0  0  0  0  0  0  0  0  0  0  0  0
   38.8530   33.6440   32.6920 C   0  0  0  0  0  0  0  0  0  0  0  0
   39.2290   32.7620   33.5930 C   0  0  0  0  0  0  0  0  0  0  0  0
   40.3640   37.0840   29.7970 C   0  0  0  0  0  0  0  0  0  0  0  0
   38.9810   33.5590   34.2600 C   0  0  0  0  0  0  0  0  0  0  0  0
  1  2  1  0
  2  7  1  0
  3  1  2  0
  4  3  1  0
  5  1  1  0
  6  4  2  0
  6  9  1  0
  7  8  1  0
  8 10  1  0
  9  5  2  0
M  END
$$$$

     RDKit          3D

 10 10  0  0  0  0  0  0  0  0999 V2000
   40.6680   38.1710   27.1760 C   0  0  0  0  0  0  0  0  0  0  0  0
   42.0060   36.2280   27.6140 O   0  0  0  0  0  0  0  0  0  0  0  0
   41.1390   38.8290   28.2570 O   0  0  0  0  0  0  0  0  0  0  0  0
   40.2280   39.2270   23.5530 O   0  0  0  0  0  0  0  0  0  0  0  0
   40.7720   36.6700   27.0350 C   0  0  0  0  0  0  0  0  0  0  0  0
   39.9170   37.1190   22.7620 C   0  0  0  0  0  0  0  0  0  0  0  0
   40.8060   38.8500   25.8250 C   0  0  0  0  0  0  0  0  0  0  0  0
   40.5650   38.0540   23.6890 C   0  0  0  0  0  0  0  0  0  0  0  0
   41.1580   37.7280   24.9050 N   0  0  0  0  0  0  0  0  0  0  0  0
   40.6600   36.5000   25.5230 C   0  0  0  0  0  0  0  0  0  0  0  0
  1  3  1  0
  4  8  2  0
  5  1  1  0
  5  2  1  0
  6  8  1  0
  7  1  1  0
  8  9  1  0
  9 10  1  0
  9  7  1  0
 10  5  1  0
M  END
$$$$

     RDKit          3D

 28 30  0  0  0  0  0  0  0  0999 V2000
   44.2950   39.8440   29.7940 C   0  0  0  0  0  0  0  0  0  0  0  0
   34.7210   29.3120   34.1350 C   0  0  0  0  0  0  0  0  0  0  0  0
   43.9550   37.9710   28.2260 N   0  0  0  0  0  0  0  0  0  0  0  0
   38.7710   34.5270   30.7450 C   0  0  0  0  0  0  0  0  0  0  0  0
   42.3280   36.1530   27.6780 C   0  0  0  0  0  0  0  0  0  0  0  0
   47.3080   39.6710   31.1560 C   0  0  0  0  0  0  0  0  0  0  0  0
   37.8730   34.1340   31.4950 C   0  0  0  0  0  0  0  0  0  0  0  0
   41.1990   35.3980   27.9950 C   0  0  0  0  0  0  0  0  0  0  0  0
   35.8130   29.0530   33.1200 C   0  0  0  0  0  0  0  0  0  0  0  0
   44.7530   38.5220   29.3340 C   0  0  0  0  0  0  0  0  0  0  0  0
   42.8960   37.0870   28.5180 C   0  0  0  0  0  0  0  0  0  0  0  0
   46.1300   38.7840   29.1890 C   0  0  0  0  0  0  0  0  0  0  0  0
   33.6600   30.8690   35.7900 O   0  0  0  0  0  0  0  0  0  0  0  0
   37.6950   32.9060   31.9030 N   0  0  0  0  0  0  0  0  0  0  0  0
   34.4020   32.6430   34.2300 O   0  0  0  0  0  0  0  0  0  0  0  0
   36.2510   33.9980   32.9110 O   0  0  0  0  0  0  0  0  0  0  0  0
   46.9760   39.5880   29.7180 C   0  0  0  0  0  0  0  0  0  0  0  0
   35.1970   31.6520   34.2470 C   0  0  0  0  0  0  0  0  0  0  0  0
   36.7820   32.6550   32.7030 N   0  0  0  0  0  0  0  0  0  0  0  0
   39.2090   35.0230   29.5650 C   0  0  0  0  0  0  0  0  0  0  0  0
   41.1640   36.6170   30.0480 C   0  0  0  0  0  0  0  0  0  0  0  0
   40.5200   35.6120   29.1530 C   0  0  0  0  0  0  0  0  0  0  0  0
   45.2320   40.9440   30.2090 C   0  0  0  0  0  0  0  0  0  0  0  0
   34.7690   30.6130   35.1230 C   0  0  0  0  0  0  0  0  0  0  0  0
   36.1570   30.3290   32.3580 C   0  0  0  0  0  0  0  0  0  0  0  0
   42.2730   37.2250   29.8250 C   0  0  0  0  0  0  0  0  0  0  0  0
   36.0910   31.4480   33.1140 C   0  0  0  0  0  0  0  0  0  0  0  0
   36.8850   34.7970   32.0200 C   0  0  0  0  0  0  0  0  0  0  0  0
  1 23  1  0
  2 24  1  0
  3 11  1  0
  3 10  1  0
  4  7  1  0
  5  8  2  0
  5 11  1  0
  7 14  1  0
  7 28  2  0
  8 22  1  0
  9  2  1  0
 10 12  1  0
 10  1  1  0
 11 26  2  0
 12 17  1  0
 15 18  2  0
 17  6  1  0
 18 24  1  0
 19 14  1  0
 19 16  1  0
 19 27  1  0
 20  4  2  3
 22 20  1  0
 22 21  2  0
 24 13  1  0
 25  9  1  0
 26 21  1  0
 27 25  1  0
 27 18  1  0
 28 16  1  0
M  END
$$$$

     RDKit          3D

 13 13  0  0  0  0  0  0  0  0999 V2000
   41.2610   39.7050   21.5040 O   0  0  0  0  0  0  0  0  0  0  0  0
   40.4590   38.9590   22.4990 C   0  0  0  0  0  0  0  0  0  0  0  0
   39.5420   37.6540   23.3380 S   0  0  0  0  0  0  0  0  0  0  0  0
   40.8500   39.6420   26.3340 O   0  0  0  0  0  0  0  0  0  0  0  0
   41.5560   35.1770   26.1340 C   0  0  0  0  0  0  0  0  0  0  0  0
   41.6620   37.2050   27.3910 O   0  0  0  0  0  0  0  0  0  0  0  0
   40.6270   39.2330   25.0200 C   0  0  0  0  0  0  0  0  0  0  0  0
   41.3530   36.6910   26.1550 C   0  0  0  0  0  0  0  0  0  0  0  0
   40.0030   37.0220   25.7440 C   0  0  0  0  0  0  0  0  0  0  0  0
   39.0540   36.1770   25.8880 O   0  0  0  0  0  0  0  0  0  0  0  0
   42.8410   34.9940   26.8270 O   0  0  0  0  0  0  0  0  0  0  0  0
   40.6980   39.8020   23.5380 O   0  0  0  0  0  0  0  0  0  0  0  0
   39.6650   38.1560   24.8690 C   0  0  0  0  0  0  0  0  0  0  0  0
  1  2  2  0
  2  3  1  0
  2 12  1  0
  3 13  1  0
  5  8  1  0
  5 11  1  0
  7  4  2  0
  8  6  1  0
  9 10  2  0
  9  8  1  0
 12  7  1  0
 13  7  1  0
 13  9  1  0
M  END
$$$$

     RDKit          3D

 11 10  0  0  0  0  0  0  0  0999 V2000
   42.1130   36.0980   25.7100 C   0  0  0  0  0  0  0  0  0  0  0  0
   37.5900   31.3850   31.1050 C   0  0  0  0  0  0  0  0  0  0  0  0
   40.6550   36.2240   27.8630 C   0  0  0  0  0  0  0  0  0  0  0  0
   36.3200   31.0760   30.3400 C   0  0  0  0  0  0  0  0  0  0  0  0
   39.3210   34.8660   29.5700 C   0  0  0  0  0  0  0  0  0  0  0  0
   43.5820   36.7880   25.8420 C   0  0  0  0  0  0  0  0  0  0  0  0
   38.6400   33.9190   30.1310 C   0  0  0  0  0  0  0  0  0  0  0  0
   40.9270   36.6630   26.3580 C   0  0  0  0  0  0  0  0  0  0  0  0
   41.5600   35.1470   25.5020 O   0  0  0  0  0  0  0  0  0  0  0  0
   39.9440   34.8880   28.1930 C   0  0  0  0  0  0  0  0  0  0  0  0
   38.0940   32.8470   30.9660 C   0  0  0  0  0  0  0  0  0  0  0  0
  1  6  1  0
  1  8  1  0
  3 10  1  0
  4  2  1  0
  5  7  2  0
  7 11  2  0
  8  3  1  0
  9  1  2  0
 10  5  1  0
 11  2  1  0
M  END
$$$$

     RDKit          3D

 28 29  0  0  0  0  0  0  0  0999 V2000
   38.2390   32.8600   31.2920 C   0  0  0  0  0  0  0  0  0  0  0  0
   33.6970   31.1230   32.0250 O   0  0  0  0  0  0  0  0  0  0  0  0
   34.8530   30.8930   32.7180 C   0  0  0  0  0  0  0  0  0  0  0  0
   34.7420   31.4080   34.0350 N   0  0  0  0  0  0  0  0  0  0  0  0
   36.8810   31.7520   32.9990 N   0  0  0  0  0  0  0  0  0  0  0  0
   43.0610   37.5200   26.9260 C   0  0  0  0  0  0  0  0  0  0  0  0
   44.5420   38.1450   28.9930 C   0  0  0  0  0  0  0  0  0  0  0  0
   36.9000   33.4530   30.9330 C   0  0  0  0  0  0  0  0  0  0  0  0
   36.1680   30.8760   32.0380 C   0  0  0  0  0  0  0  0  0  0  0  0
   42.1490   37.6910   28.1450 C   0  0  0  0  0  0  0  0  0  0  0  0
   46.3550   41.0320   30.5370 C   0  0  0  0  0  0  0  0  0  0  0  0
   39.5200   33.5600   29.5840 O   0  0  0  0  0  0  0  0  0  0  0  0
   41.4100   36.3720   28.3920 C   0  0  0  0  0  0  0  0  0  0  0  0
   37.0180   30.9040   34.1370 C   0  0  0  0  0  0  0  0  0  0  0  0
   40.3620   34.3750   27.6710 N   0  0  0  0  0  0  0  0  0  0  0  0
   46.6040   40.4150   28.2110 O   0  0  0  0  0  0  0  0  0  0  0  0
   39.5310   33.5720   31.0190 C   0  0  0  0  0  0  0  0  0  0  0  0
   40.1360   34.5120   29.0190 C   0  0  0  0  0  0  0  0  0  0  0  0
   40.9770   35.5110   27.2400 C   0  0  0  0  0  0  0  0  0  0  0  0
   46.5130   39.9300   29.3550 C   0  0  0  0  0  0  0  0  0  0  0  0
   35.8680   31.3080   34.9960 C   0  0  0  0  0  0  0  0  0  0  0  0
   43.0490   38.1110   29.3370 C   0  0  0  0  0  0  0  0  0  0  0  0
   37.2180   32.3780   36.5650 O   0  0  0  0  0  0  0  0  0  0  0  0
   36.6020   31.1500   36.3380 C   0  0  0  0  0  0  0  0  0  0  0  0
   38.2180   32.2140   32.6440 C   0  0  0  0  0  0  0  0  0  0  0  0
   35.7190   30.4390   37.2770 C   0  0  0  0  0  0  0  0  0  0  0  0
   40.8750   35.6240   29.5540 C   0  0  0  0  0  0  0  0  0  0  0  0
   45.3240   39.0920   29.6060 O   0  0  0  0  0  0  0  0  0  0  0  0
  1  8  1  0
  1 25  1  0
  2  3  2  0
  3  4  1  0
  4 21  1  0
  5 14  1  0
  7 22  1  0
  7 28  1  0
  9  3  1  0
  9  5  1  0
 10  6  1  0
 10 22  1  0
 12 17  1  0
 13 10  1  0
 13 27  1  0
 14 21  1  0
 15 18  2  0
 16 20  1  0
 17  1  1  0
 18 27  1  0
 18 12  1  0
 19 15  1  0
 19 13  1  0
 20 28  1  0
 20 11  1  0
 21 24  1  0
 24 23  1  0
 24 26  1  0
 25  5  1  0
M  END
$$$$

     RDKit          3D

 16 17  0  0  0  0  0  0  0  0999 V2000
   42.0230   37.5980   26.7440 C   0  0  0  0  0  0  0  0  0  0  0  0
   38.0170   33.2390   33.4860 C   0  0  0  0  0  0  0  0  0  0  0  0
   40.6040   36.2160   25.4290 O   0  0  0  0  0  0  0  0  0  0  0  0
   39.1370   34.0210   33.1820 C   0  0  0  0  0  0  0  0  0  0  0  0
   36.7600   34.0930   31.5330 C   0  0  0  0  0  0  0  0  0  0  0  0
   37.9900   34.7890   31.0870 C   0  0  0  0  0  0  0  0  0  0  0  0
   40.3930   36.2480   30.5580 C   0  0  0  0  0  0  0  0  0  0  0  0
   42.0950   34.8570   27.5500 F   0  0  0  0  0  0  0  0  0  0  0  0
   39.5560   35.9410   29.5940 N   0  0  0  0  0  0  0  0  0  0  0  0
   36.8320   33.2830   32.6970 C   0  0  0  0  0  0  0  0  0  0  0  0
   40.0290   35.6950   31.6620 C   0  0  0  0  0  0  0  0  0  0  0  0
   40.9100   35.5280   27.5610 C   0  0  0  0  0  0  0  0  0  0  0  0
   39.0900   34.8220   31.9710 C   0  0  0  0  0  0  0  0  0  0  0  0
   38.2300   35.3560   29.8800 C   0  0  0  0  0  0  0  0  0  0  0  0
   40.1660   36.3540   28.4770 C   0  0  0  0  0  0  0  0  0  0  0  0
   41.1930   36.5210   26.5040 C   0  0  0  0  0  0  0  0  0  0  0  0
  3 16  2  0
  4  2  1  0
  5 10  1  0
  6  5  2  0
  6 13  1  0
  7 11  1  0
  9 14  1  0
  9  7  1  0
 10  2  2  0
 11 13  1  0
 12  8  1  0
 12 15  1  0
 13  4  2  0
 14  6  1  0
 15  9  1  0
 16  1  1  0
 16 12  1  0
M  END
$$$$

     RDKit          3D

 13 12  0  0  0  0  0  0  0  0999 V2000
   37.4170   33.6340   34.0830 O   0  0  0  0  0  0  0  0  0  0  0  0
   40.0220   35.6210   28.7990 C   0  0  0  0  0  0  0  0  0  0  0  0
   41.7200   37.5290   28.0360 C   0  0  0  0  0  0  0  0  0  0  0  0
   40.7230   35.3200   27.4870 C   0  0  0  0  0  0  0  0  0  0  0  0
   42.6990   36.1680   26.1360 C   0  0  0  0  0  0  0  0  0  0  0  0
   37.0280   32.6900   32.3190 O   0  0  0  0  0  0  0  0  0  0  0  0
   38.9890   34.4510   30.7420 C   0  0  0  0  0  0  0  0  0  0  0  0
   42.0920   36.9690   29.0740 O   0  0  0  0  0  0  0  0  0  0  0  0
   37.4730   33.7030   32.8110 C   0  0  0  0  0  0  0  0  0  0  0  0
   41.4330   36.5750   26.9170 C   0  0  0  0  0  0  0  0  0  0  0  0
   38.0620   34.7690   31.8920 C   0  0  0  0  0  0  0  0  0  0  0  0
   39.0740   35.5790   29.7440 C   0  0  0  0  0  0  0  0  0  0  0  0
   41.5520   38.7790   27.9550 O   0  0  0  0  0  0  0  0  0  0  0  0
  2 12  1  0
  3  8  1  0
  4  2  1  0
  6  9  2  0
  7 11  1  0
  9  1  1  0
 10  5  1  0
 10  4  1  0
 10  3  1  0
 11  9  1  0
 12  7  1  0
 13  3  2  0
M  END
$$$$

     RDKit          3D

 12 11  0  0  0  0  0  0  0  0999 V2000
   41.3740   35.0270   27.8140 C   0  0  0  0  0  0  0  0  0  0  0  0
   41.0760   37.4430   28.5310 C   0  0  0  0  0  0  0  0  0  0  0  0
   43.2500   40.4650   29.8190 O   0  0  0  0  0  0  0  0  0  0  0  0
   39.6790   32.7690   29.9430 C   0  0  0  0  0  0  0  0  0  0  0  0
   41.6980   38.5540   28.7530 N   0  0  0  0  0  0  0  0  0  0  0  0
   41.2790   36.5200   27.3310 C   0  0  0  0  0  0  0  0  0  0  0  0
   44.3840   40.9390   27.4890 S   0  0  0  0  0  0  0  0  0  0  0  0
   42.9890   38.7530   28.1930 C   0  0  0  0  0  0  0  0  0  0  0  0
   38.4300   32.2350   30.3460 C   0  0  0  0  0  0  0  0  0  0  0  0
   43.9900   39.7000   28.8100 C   0  0  0  0  0  0  0  0  0  0  0  0
   39.9740   33.8530   29.3920 C   0  0  0  0  0  0  0  0  0  0  0  0
   39.9750   34.5410   28.1950 C   0  0  0  0  0  0  0  0  0  0  0  0
  1 12  1  0
  2  5  1  0
  4  9  1  0
  6  1  1  0
  6  2  1  0
  8  5  1  0
  8 10  1  0
 10  7  1  0
 10  3  1  0
 11  4  1  0
 12 11  1  0
M  END
$$$$

     RDKit          3D

 12 11  0  0  0  0  0  0  0  0999 V2000
   40.6990   34.8700   26.7140 O   0  0  0  0  0  0  0  0  0  0  0  0
   42.6910   39.2170   29.5110 O   0  0  0  0  0  0  0  0  0  0  0  0
   43.0000   39.0620   27.2400 C   0  0  0  0  0  0  0  0  0  0  0  0
   42.3230   40.2650   26.5670 O   0  0  0  0  0  0  0  0  0  0  0  0
   42.2900   36.4450   28.4050 O   0  0  0  0  0  0  0  0  0  0  0  0
   43.1800   39.3350   28.6250 C   0  0  0  0  0  0  0  0  0  0  0  0
   44.0790   40.1680   28.5850 O   0  0  0  0  0  0  0  0  0  0  0  0
   41.4730   38.3120   25.5450 O   0  0  0  0  0  0  0  0  0  0  0  0
   41.8950   36.8110   27.4020 C   0  0  0  0  0  0  0  0  0  0  0  0
   39.8180   36.7810   26.1930 O   0  0  0  0  0  0  0  0  0  0  0  0
   42.2800   37.9220   26.5220 C   0  0  0  0  0  0  0  0  0  0  0  0
   40.7320   36.1200   26.7360 C   0  0  0  0  0  0  0  0  0  0  0  0
  1 12  1  0
  3  4  1  0
  3  6  1  0
  6  2  1  0
  7  6  2  0
  9  5  2  0
 10 12  2  0
 11  8  1  0
 11  3  1  0
 11  9  1  0
 12  9  1  0
M  END
$$$$

     RDKit          3D

 24 26  0  0  0  0  0  0  0  0999 V2000
   43.4590   37.3450   27.7330 O   0  0  0  0  0  0  0  0  0  0  0  0
   33.7960   30.2660   33.8530 O   0  0  0  0  0  0  0  0  0  0  0  0
   35.7850   31.6350   32.8040 O   0  0  0  0  0  0  0  0  0  0  0  0
   39.9590   35.9560   31.0340 C   0  0  0  0  0  0  0  0  0  0  0  0
   40.1580   35.6250   29.6550 C   0  0  0  0  0  0  0  0  0  0  0  0
   44.1910   37.4050   26.4740 C   0  0  0  0  0  0  0  0  0  0  0  0
   43.2790   37.2540   29.0880 C   0  0  0  0  0  0  0  0  0  0  0  0
   35.0540   32.5320   32.8770 C   0  0  0  0  0  0  0  0  0  0  0  0
   36.4360   32.5440   33.6760 C   0  0  0  0  0  0  0  0  0  0  0  0
   36.9090   33.3530   31.6970 C   0  0  0  0  0  0  0  0  0  0  0  0
   32.2430   31.5250   34.9310 O   0  0  0  0  0  0  0  0  0  0  0  0
   39.6620   34.4760   29.0370 C   0  0  0  0  0  0  0  0  0  0  0  0
   38.5640   33.8740   29.4040 C   0  0  0  0  0  0  0  0  0  0  0  0
   36.9240   33.7980   33.1720 C   0  0  0  0  0  0  0  0  0  0  0  0
   39.2090   34.6660   31.9730 S   0  0  0  0  0  0  0  0  0  0  0  0
   37.9840   33.9920   30.8300 C   0  0  0  0  0  0  0  0  0  0  0  0
   35.3590   33.2040   31.6000 C   0  0  0  0  0  0  0  0  0  0  0  0
   40.3130   34.3730   27.7050 C   0  0  0  0  0  0  0  0  0  0  0  0
   33.6590   32.2290   33.0210 N   0  0  0  0  0  0  0  0  0  0  0  0
   41.7550   37.3180   29.4190 C   0  0  0  0  0  0  0  0  0  0  0  0
   34.8730   34.2190   30.9680 O   0  0  0  0  0  0  0  0  0  0  0  0
   40.8170   36.5520   28.6940 C   0  0  0  0  0  0  0  0  0  0  0  0
   33.2000   31.2870   33.9250 C   0  0  0  0  0  0  0  0  0  0  0  0
   41.3060   35.5130   27.6130 C   0  0  0  0  0  0  0  0  0  0  0  0
  1  7  1  0
  2 23  2  0
  3  8  1  0
  3  9  1  0
  4 15  1  0
  5  4  1  0
  6  1  1  0
  7 20  1  0
  8 19  1  0
 10 14  1  0
 12 18  1  0
 12 13  1  0
 12  5  1  0
 14  9  1  0
 16 13  1  0
 16 10  1  0
 16 15  1  0
 17 21  1  0
 17 10  1  0
 17  8  1  0
 19 23  1  0
 22 20  1  0
 22  5  1  0
 23 11  1  0
 24 18  1  0
 24 22  1  0
M  END
$$$$

     RDKit          3D

 34 40  0  0  0  0  0  0  0  0999 V2000
   39.6420   37.5250   28.7800 O   0  0  0  0  0  0  0  0  0  0  0  0
   40.6370   36.6700   28.5930 C   0  0  0  0  0  0  0  0  0  0  0  0
   34.8750   32.6510   31.9720 N   0  0  0  0  0  0  0  0  0  0  0  0
   44.0820   39.4710   24.7500 C   0  0  0  0  0  0  0  0  0  0  0  0
   35.4000   30.9680   32.9570 N   0  0  0  0  0  0  0  0  0  0  0  0
   33.5430   34.4400   32.5390 O   0  0  0  0  0  0  0  0  0  0  0  0
   33.9230   32.1710   35.7710 N   0  0  0  0  0  0  0  0  0  0  0  0
   43.5190   40.0310   27.1180 C   0  0  0  0  0  0  0  0  0  0  0  0
   43.1290   35.9240   27.1790 O   0  0  0  0  0  0  0  0  0  0  0  0
   44.9210   40.7680   24.6420 C   0  0  0  0  0  0  0  0  0  0  0  0
   43.7970   36.8810   25.0290 C   0  0  0  0  0  0  0  0  0  0  0  0
   34.6380   30.2750   30.8660 C   0  0  0  0  0  0  0  0  0  0  0  0
   38.7230   32.7880   29.3950 C   0  0  0  0  0  0  0  0  0  0  0  0
   43.5000   39.3220   26.1190 N   0  0  0  0  0  0  0  0  0  0  0  0
   37.7180   31.7800   29.8430 C   0  0  0  0  0  0  0  0  0  0  0  0
   34.2850   32.9920   32.9010 C   0  0  0  0  0  0  0  0  0  0  0  0
   45.6440   39.4470   24.7510 C   0  0  0  0  0  0  0  0  0  0  0  0
   38.0510   34.0700   29.9000 C   0  0  0  0  0  0  0  0  0  0  0  0
   41.6800   37.3170   27.5640 C   0  0  0  0  0  0  0  0  0  0  0  0
   38.9570   35.1970   29.6540 N   0  0  0  0  0  0  0  0  0  0  0  0
   35.8000   32.3360   31.1570 C   0  0  0  0  0  0  0  0  0  0  0  0
   42.7440   36.9150   26.3120 C   0  0  0  0  0  0  0  0  0  0  0  0
   37.0020   34.0140   30.5530 N   0  0  0  0  0  0  0  0  0  0  0  0
   35.1890   31.4410   31.7570 C   0  0  0  0  0  0  0  0  0  0  0  0
   36.0800   29.6480   33.0310 C   0  0  0  0  0  0  0  0  0  0  0  0
   42.5490   39.3650   26.8730 C   0  0  0  0  0  0  0  0  0  0  0  0
   40.1840   35.1950   28.8260 C   0  0  0  0  0  0  0  0  0  0  0  0
   34.5280   31.6870   33.6860 C   0  0  0  0  0  0  0  0  0  0  0  0
   34.0100   33.3680   36.1520 C   0  0  0  0  0  0  0  0  0  0  0  0
   34.4120   32.8240   34.0550 C   0  0  0  0  0  0  0  0  0  0  0  0
   43.7570   37.9400   23.9920 C   0  0  0  0  0  0  0  0  0  0  0  0
   34.0480   33.5030   35.0970 N   0  0  0  0  0  0  0  0  0  0  0  0
   36.7360   32.6530   30.5250 C   0  0  0  0  0  0  0  0  0  0  0  0
   41.4230   38.8080   27.6330 O   0  0  0  0  0  0  0  0  0  0  0  0
  2  1  1  0
  2 27  1  0
  3 16  1  0
  4 17  1  0
  4 14  1  0
  5 25  1  0
  5 28  1  0
  6 16  1  0
  7 29  1  0
 10  4  1  0
 10 17  1  0
 11 22  1  0
 12 24  1  0
 13 15  1  0
 13 18  1  0
 14 26  1  0
 14  8  1  0
 15 33  2  0
 16 28  1  0
 16 30  1  0
 18 23  2  0
 19 34  1  0
 19  2  1  0
 20 18  1  0
 21 24  1  0
 21  3  1  0
 22  9  1  0
 22 19  1  0
 24  3  1  0
 24  5  1  0
 26  8  1  0
 26 34  1  0
 27 20  1  0
 28 30  1  0
 30 32  1  0
 31  4  1  0
 31 11  1  0
 32 29  1  0
 33 23  1  0
 33 21  1  0
M  END
$$$$

     RDKit          3D

 10 10  0  0  0  0  0  0  0  0999 V2000
   40.7150   38.0840   26.2280 C   0  0  0  0  0  0  0  0  0  0  0  0
   41.9510   34.8270   26.3620 O   0  0  0  0  0  0  0  0  0  0  0  0
   42.0910   36.2300   23.8440 O   0  0  0  0  0  0  0  0  0  0  0  0
   41.8240   38.0270   25.1470 N   0  0  0  0  0  0  0  0  0  0  0  0
   41.0730   36.9150   27.1700 C   0  0  0  0  0  0  0  0  0  0  0  0
   42.0880   37.4810   28.1270 C   0  0  0  0  0  0  0  0  0  0  0  0
   41.8410   38.8080   28.4010 O   0  0  0  0  0  0  0  0  0  0  0  0
   42.2260   36.7280   25.1280 C   0  0  0  0  0  0  0  0  0  0  0  0
   41.8680   36.0250   26.3930 C   0  0  0  0  0  0  0  0  0  0  0  0
   43.5960   37.3410   28.0510 O   0  0  0  0  0  0  0  0  0  0  0  0
  1  5  1  0
  2  9  2  0
  3  8  2  0
  4  1  1  0
  5  6  1  0
  6  7  1  0
  8  4  1  0
  8  9  1  0
  9  5  1  0
 10  6  1  0
M  END
$$$$

     RDKit          3D

 18 19  0  0  0  0  0  0  0  0999 V2000
   34.6070   32.3300   33.0910 C   0  0  0  0  0  0  0  0  0  0  0  0
   38.0180   33.8630   31.8120 C   0  0  0  0  0  0  0  0  0  0  0  0
   38.9230   34.8980   31.3830 O   0  0  0  0  0  0  0  0  0  0  0  0
   35.8510   32.3640   32.4630 N   0  0  0  0  0  0  0  0  0  0  0  0
   41.0550   34.9300   28.4320 C   0  0  0  0  0  0  0  0  0  0  0  0
   42.1100   34.4060   27.7800 O   0  0  0  0  0  0  0  0  0  0  0  0
   41.3820   37.0550   29.8220 C   0  0  0  0  0  0  0  0  0  0  0  0
   40.7000   34.6540   29.7530 C   0  0  0  0  0  0  0  0  0  0  0  0
   38.2740   32.9440   32.9730 C   0  0  0  0  0  0  0  0  0  0  0  0
   41.3500   35.8570   29.3620 N   0  0  0  0  0  0  0  0  0  0  0  0
   40.2420   34.6830   31.0550 C   0  0  0  0  0  0  0  0  0  0  0  0
   33.7830   31.5240   33.0690 N   0  0  0  0  0  0  0  0  0  0  0  0
   35.9330   32.8260   31.1700 C   0  0  0  0  0  0  0  0  0  0  0  0
   37.0590   32.0630   33.2410 C   0  0  0  0  0  0  0  0  0  0  0  0
   40.2380   37.9770   29.5480 C   0  0  0  0  0  0  0  0  0  0  0  0
   40.0920   35.3660   27.6440 O   0  0  0  0  0  0  0  0  0  0  0  0
   42.3820   37.5460   30.3990 O   0  0  0  0  0  0  0  0  0  0  0  0
   36.9360   33.8970   31.0890 C   0  0  0  0  0  0  0  0  0  0  0  0
  2  9  1  0
  3  2  1  0
  4  1  1  0
  4 14  1  0
  5 10  1  0
  5  8  1  0
  6  5  1  0
  7 17  2  0
  8 11  1  0
  9 14  1  0
 10  8  1  0
 10  7  1  0
 11  3  1  0
 12  1  2  0
 13  4  1  0
 15  7  1  0
 16  5  1  0
 18 13  1  0
 18  2  2  0
M  END
$$$$

     RDKit          3D

 25 25  0  0  0  0  0  0  0  0999 V2000
   36.8730   32.1790   31.3240 C   0  0  0  0  0  0  0  0  0  0  0  0
   41.7340   38.3350   21.7870 N   0  0  0  0  0  0  0  0  0  0  0  0
   41.1030   36.6990   27.1670 N   0  0  0  0  0  0  0  0  0  0  0  0
   40.6520   36.2270   25.0500 C   0  0  0  0  0  0  0  0  0  0  0  0
   41.5420   40.2360   23.4570 C   0  0  0  0  0  0  0  0  0  0  0  0
   41.3120   39.3450   21.2970 C   0  0  0  0  0  0  0  0  0  0  0  0
   38.5790   33.5490   30.4320 C   0  0  0  0  0  0  0  0  0  0  0  0
   40.9940   37.3340   26.0080 C   0  0  0  0  0  0  0  0  0  0  0  0
   35.9000   30.1430   32.4660 C   0  0  0  0  0  0  0  0  0  0  0  0
   40.2310   35.0060   29.3440 C   0  0  0  0  0  0  0  0  0  0  0  0
   40.9780   37.9920   23.0170 C   0  0  0  0  0  0  0  0  0  0  0  0
   41.3940   36.9870   28.4220 C   0  0  0  0  0  0  0  0  0  0  0  0
   36.7250   27.8500   32.9610 C   0  0  0  0  0  0  0  0  0  0  0  0
   37.9500   33.1120   31.5670 N   0  0  0  0  0  0  0  0  0  0  0  0
   38.3190   33.0880   29.3280 O   0  0  0  0  0  0  0  0  0  0  0  0
   42.1390   38.2720   28.8040 C   0  0  0  0  0  0  0  0  0  0  0  0
   36.4230   29.1510   33.6520 C   0  0  0  0  0  0  0  0  0  0  0  0
   41.7120   38.5150   25.3480 C   0  0  0  0  0  0  0  0  0  0  0  0
   40.4370   36.5010   29.4720 C   0  0  0  0  0  0  0  0  0  0  0  0
   41.3600   38.9150   23.9490 C   0  0  0  0  0  0  0  0  0  0  0  0
   39.5540   34.4850   30.5340 N   0  0  0  0  0  0  0  0  0  0  0  0
   36.0140   29.5910   35.0110 C   0  0  0  0  0  0  0  0  0  0  0  0
   37.1330   30.8010   31.8920 C   0  0  0  0  0  0  0  0  0  0  0  0
   40.8000   39.9960   22.0460 N   0  0  0  0  0  0  0  0  0  0  0  0
   34.4200   30.0170   34.8250 C   0  0  0  0  0  0  0  0  0  0  0  0
  1 14  1  0
  1 23  1  0
  2 11  1  0
  3 12  1  0
  5 20  1  0
  6  2  1  0
  6 24  1  0
  7 21  1  0
  7 14  1  0
  8  4  1  0
  8  3  1  0
  9 17  1  0
 10 19  1  0
 10 21  1  0
 11 20  1  0
 12 16  1  0
 12 19  1  0
 15  7  2  0
 17 13  1  0
 17 22  1  0
 18  8  1  0
 20 18  1  0
 23  9  1  0
 24  5  1  0
 25 22  1  0
M  END
$$$$

     RDKit          3D

 10  9  0  0  0  0  0  0  0  0999 V2000
   43.8540   39.3210   27.1330 C   0  0  0  0  0  0  0  0  0  0  0  0
   42.1870   37.0720   26.0940 C   0  0  0  0  0  0  0  0  0  0  0  0
   43.1190   38.4770   27.7250 C   0  0  0  0  0  0  0  0  0  0  0  0
   41.1960   34.8020   26.6420 O   0  0  0  0  0  0  0  0  0  0  0  0
   41.7740   37.8440   27.3460 C   0  0  0  0  0  0  0  0  0  0  0  0
   40.4320   35.9360   24.8960 O   0  0  0  0  0  0  0  0  0  0  0  0
   44.8890   40.3090   26.8660 C   0  0  0  0  0  0  0  0  0  0  0  0
   41.4110   35.8360   25.7750 C   0  0  0  0  0  0  0  0  0  0  0  0
   42.7890   39.4270   28.8570 C   0  0  0  0  0  0  0  0  0  0  0  0
   43.9890   39.7360   29.4990 O   0  0  0  0  0  0  0  0  0  0  0  0
  2  5  1  0
  3  1  1  0
  3  9  1  0
  5  3  1  0
  6  8  2  0
  7  1  1  0
  8  2  1  0
  8  4  1  0
  9 10  1  0
M  END
$$$$
