
     RDKit          3D

 24 26  0  0  0  0  0  0  0  0999 V2000
   42.1140   36.3670   30.6420 C   0  0  0  0  0  0  0  0  0  0  0  0
   42.6780   34.4720   29.4480 N   0  0  0  0  0  0  0  0  0  0  0  0
   41.7170   33.8280   29.6750 C   0  0  0  0  0  0  0  0  0  0  0  0
   37.2890   30.0830   33.8980 N   0  0  0  0  0  0  0  0  0  0  0  0
   34.6070   33.8780   29.6380 C   0  0  0  0  0  0  0  0  0  0  0  0
   42.9600   35.7640   29.7010 C   0  0  0  0  0  0  0  0  0  0  0  0
   36.9940   33.8620   30.5600 C   0  0  0  0  0  0  0  0  0  0  0  0
   41.0180   35.6650   31.1340 C   0  0  0  0  0  0  0  0  0  0  0  0
   33.8740   34.9960   29.2090 C   0  0  0  0  0  0  0  0  0  0  0  0
   38.2600   32.3470   32.2150 C   0  0  0  0  0  0  0  0  0  0  0  0
   35.6330   34.4800   30.2110 C   0  0  0  0  0  0  0  0  0  0  0  0
   39.3220   32.9160   30.1610 N   0  0  0  0  0  0  0  0  0  0  0  0
   32.8760   34.8520   28.4890 N   0  0  0  0  0  0  0  0  0  0  0  0
   38.3220   29.8970   33.0620 C   0  0  0  0  0  0  0  0  0  0  0  0
   32.6920   35.8200   27.3390 C   0  0  0  0  0  0  0  0  0  0  0  0
   38.2380   33.1060   30.9720 C   0  0  0  0  0  0  0  0  0  0  0  0
   40.5820   33.3970   30.6560 C   0  0  0  0  0  0  0  0  0  0  0  0
   34.5350   36.2540   29.2180 C   0  0  0  0  0  0  0  0  0  0  0  0
   40.1860   34.6530   31.4290 C   0  0  0  0  0  0  0  0  0  0  0  0
   38.9030   28.7110   33.1320 N   0  0  0  0  0  0  0  0  0  0  0  0
   38.5950   30.8570   32.0730 N   0  0  0  0  0  0  0  0  0  0  0  0
   33.5160   37.4010   29.0740 C   0  0  0  0  0  0  0  0  0  0  0  0
   35.4580   35.7630   30.2170 N   0  0  0  0  0  0  0  0  0  0  0  0
   32.3990   37.1240   28.0720 C   0  0  0  0  0  0  0  0  0  0  0  0
  1  8  1  0
  2  3  1  0
  2  6  1  0
  3 17  1  0
  5 11  1  0
  6  1  1  0
  7 16  2  0
  8 19  1  0
  9 18  1  0
  9  5  1  0
 11 23  1  0
 11  7  2  0
 12 16  1  0
 13  9  1  0
 14 20  1  0
 14  4  1  0
 15 24  1  0
 15 13  1  0
 16 10  1  0
 17 12  1  0
 17 19  1  0
 18 22  1  0
 18 23  1  0
 21 10  1  0
 21 14  2  3
 24 22  1  0
M  END
$$$$

     RDKit          3D

 11 10  0  0  0  0  0  0  0  0999 V2000
   33.5350   37.5160   26.3430 O   0  0  0  0  0  0  0  0  0  0  0  0
   37.6870   36.6970   27.3800 C   0  0  0  0  0  0  0  0  0  0  0  0
   34.3730   37.1900   27.1270 C   0  0  0  0  0  0  0  0  0  0  0  0
   37.0130   36.3820   28.4540 C   0  0  0  0  0  0  0  0  0  0  0  0
   40.7940   36.4560   27.1940 O   0  0  0  0  0  0  0  0  0  0  0  0
   35.6710   37.9070   27.1450 C   0  0  0  0  0  0  0  0  0  0  0  0
   38.7070   35.7780   26.9620 C   0  0  0  0  0  0  0  0  0  0  0  0
   40.0140   35.2630   27.4110 C   0  0  0  0  0  0  0  0  0  0  0  0
   36.7350   37.2580   26.4170 C   0  0  0  0  0  0  0  0  0  0  0  0
   33.9700   36.3770   27.9640 O   0  0  0  0  0  0  0  0  0  0  0  0
   38.9190   36.1120   25.5020 O   0  0  0  0  0  0  0  0  0  0  0  0
  1  3  2  0
  2  4  2  0
  3  6  1  0
  3 10  1  0
  5  8  1  0
  7 11  1  0
  7  2  1  0
  7  8  1  0
  9  6  1  0
  9  2  1  0
M  END
$$$$

     RDKit          3D

  9  9  0  0  0  0  0  0  0  0999 V2000
   38.9220   36.4420   24.5240 C   0  0  0  0  0  0  0  0  0  0  0  0
   37.3160   35.9880   26.3410 C   0  0  0  0  0  0  0  0  0  0  0  0
   36.2040   37.0030   26.3930 C   0  0  0  0  0  0  0  0  0  0  0  0
   38.6180   35.7730   25.8630 N   0  0  0  0  0  0  0  0  0  0  0  0
   38.6800   34.7690   27.7080 C   0  0  0  0  0  0  0  0  0  0  0  0
   35.2800   36.8600   27.1990 O   0  0  0  0  0  0  0  0  0  0  0  0
   37.5510   35.4660   27.6270 N   0  0  0  0  0  0  0  0  0  0  0  0
   39.4080   34.9720   26.5050 C   0  0  0  0  0  0  0  0  0  0  0  0
   36.4510   37.9980   25.6830 O   0  0  0  0  0  0  0  0  0  0  0  0
  1  4  1  0
  2  3  1  0
  2  7  1  0
  3  6  1  0
  4  2  1  0
  4  8  1  0
  7  5  1  0
  8  5  1  0
  9  3  2  0
M  END
$$$$

     RDKit          3D

  8  7  0  0  0  0  0  0  0  0999 V2000
   39.7050   34.1550   26.8990 O   0  0  0  0  0  0  0  0  0  0  0  0
   40.3760   37.7180   25.7200 C   0  0  0  0  0  0  0  0  0  0  0  0
   38.9900   35.4390   24.7820 O   0  0  0  0  0  0  0  0  0  0  0  0
   40.1870   36.6790   26.7330 C   0  0  0  0  0  0  0  0  0  0  0  0
   39.5110   39.8780   25.3200 O   0  0  0  0  0  0  0  0  0  0  0  0
   41.3430   34.9300   25.2210 O   0  0  0  0  0  0  0  0  0  0  0  0
   39.4140   38.4780   25.0270 C   0  0  0  0  0  0  0  0  0  0  0  0
   39.9480   35.1960   25.8820 S   0  0  0  0  0  0  0  0  0  0  0  0
  2  4  1  0
  3  8  1  0
  6  8  1  0
  7  5  1  0
  7  2  1  0
  8  4  1  0
  8  1  1  0
M  END
$$$$

     RDKit          3D

 30 30  0  0  0  0  0  0  0  0999 V2000
   42.2940   39.1440   24.0860 C   0  0  0  0  0  0  0  0  0  0  0  0
   41.6000   36.2750   24.7140 O   0  0  0  0  0  0  0  0  0  0  0  0
   40.0970   38.2010   23.0920 C   0  0  0  0  0  0  0  0  0  0  0  0
   37.1620   32.4000   32.4730 C   0  0  0  0  0  0  0  0  0  0  0  0
   38.2670   29.7750   34.5200 C   0  0  0  0  0  0  0  0  0  0  0  0
   38.3970   31.7750   33.0820 C   0  0  0  0  0  0  0  0  0  0  0  0
   38.1970   34.8040   29.9780 C   0  0  0  0  0  0  0  0  0  0  0  0
   35.9010   31.6780   32.8660 C   0  0  0  0  0  0  0  0  0  0  0  0
   33.3940   35.4010   30.7110 C   0  0  0  0  0  0  0  0  0  0  0  0
   41.1490   37.2260   25.3110 C   0  0  0  0  0  0  0  0  0  0  0  0
   39.8170   39.3750   25.0570 C   0  0  0  0  0  0  0  0  0  0  0  0
   35.8330   35.1830   30.4350 C   0  0  0  0  0  0  0  0  0  0  0  0
   37.9500   28.4150   34.8330 O   0  0  0  0  0  0  0  0  0  0  0  0
   38.8400   36.5300   28.3250 C   0  0  0  0  0  0  0  0  0  0  0  0
   41.0700   37.0420   27.5840 N   0  0  0  0  0  0  0  0  0  0  0  0
   34.6030   33.9840   31.6430 C   0  0  0  0  0  0  0  0  0  0  0  0
   32.1420   36.0680   31.1570 C   0  0  0  0  0  0  0  0  0  0  0  0
   37.0420   33.4060   31.5330 C   0  0  0  0  0  0  0  0  0  0  0  0
   34.6020   35.0190   30.9000 N   0  0  0  0  0  0  0  0  0  0  0  0
   36.0080   30.3670   33.4760 C   0  0  0  0  0  0  0  0  0  0  0  0
   38.8420   37.1180   27.1300 O   0  0  0  0  0  0  0  0  0  0  0  0
   40.8670   34.9670   28.5580 O   0  0  0  0  0  0  0  0  0  0  0  0
   40.3050   36.2660   28.5800 C   0  0  0  0  0  0  0  0  0  0  0  0
   37.7660   35.5800   28.7400 C   0  0  0  0  0  0  0  0  0  0  0  0
   38.6000   30.2650   33.0980 C   0  0  0  0  0  0  0  0  0  0  0  0
   41.6840   37.5460   26.6140 C   0  0  0  0  0  0  0  0  0  0  0  0
   39.1410   30.0260   35.5470 O   0  0  0  0  0  0  0  0  0  0  0  0
   36.9290   34.3800   30.7010 C   0  0  0  0  0  0  0  0  0  0  0  0
   36.8910   30.3400   34.5800 C   0  0  0  0  0  0  0  0  0  0  0  0
   40.7750   38.5650   24.3830 S   0  0  0  0  0  0  0  0  0  0  0  0
  1 30  1  0
  2 10  2  0
  3 30  1  0
  4  8  1  0
  4  6  1  0
  5 29  1  0
  5 13  1  0
  5 27  1  0
  6 25  1  0
  7 28  1  0
  8 20  1  0
  9 19  1  0
  9 17  1  0
 10 26  1  0
 12 28  1  0
 12 19  1  0
 14 21  1  0
 14 23  1  0
 14 24  1  0
 15 23  1  0
 18  4  2  0
 19 16  1  0
 20 29  1  0
 23 22  1  0
 24  7  1  0
 25  5  1  0
 26 15  1  0
 28 18  2  0
 30 11  1  0
 30 10  1  0
M  END
$$$$

     RDKit          3D

 14 14  0  0  0  0  0  0  0  0999 V2000
   44.4480   35.5770   26.5370 O   0  0  0  0  0  0  0  0  0  0  0  0
   40.0630   33.3990   25.2110 O   0  0  0  0  0  0  0  0  0  0  0  0
   42.8050   36.4270   27.5000 O   0  0  0  0  0  0  0  0  0  0  0  0
   38.8050   36.6940   25.5200 C   0  0  0  0  0  0  0  0  0  0  0  0
   38.0060   37.6440   25.2110 O   0  0  0  0  0  0  0  0  0  0  0  0
   40.1680   36.8680   25.5710 C   0  0  0  0  0  0  0  0  0  0  0  0
   41.2070   39.1040   25.5800 O   0  0  0  0  0  0  0  0  0  0  0  0
   40.8760   35.5120   25.6340 C   0  0  0  0  0  0  0  0  0  0  0  0
   42.2300   34.8440   25.8100 C   0  0  0  0  0  0  0  0  0  0  0  0
   43.2540   35.7860   26.3970 C   0  0  0  0  0  0  0  0  0  0  0  0
   38.5790   35.3620   25.2820 N   0  0  0  0  0  0  0  0  0  0  0  0
   40.8270   38.1010   25.8060 C   0  0  0  0  0  0  0  0  0  0  0  0
   39.6590   34.5800   25.9280 C   0  0  0  0  0  0  0  0  0  0  0  0
   42.4790   33.5370   26.3440 O   0  0  0  0  0  0  0  0  0  0  0  0
  4  6  1  0
  5  4  2  0
  6  8  1  0
  6 12  2  0
  7 12  2  0
  8  9  1  0
  8 13  1  0
  9 14  1  0
  9 10  1  0
 10  1  2  0
 10  3  1  0
 11  4  1  0
 11 13  1  0
 13  2  1  0
M  END
$$$$

     RDKit          3D

 18 19  0  0  0  0  0  0  0  0999 V2000
   31.4180   36.7570   29.0690 N   0  0  0  0  0  0  0  0  0  0  0  0
   38.0220   32.4280   32.0370 C   0  0  0  0  0  0  0  0  0  0  0  0
   36.2420   35.1340   29.6340 C   0  0  0  0  0  0  0  0  0  0  0  0
   39.4490   32.3930   32.0450 C   0  0  0  0  0  0  0  0  0  0  0  0
   35.4590   35.4320   28.2950 C   0  0  0  0  0  0  0  0  0  0  0  0
   37.6260   35.1140   29.1560 C   0  0  0  0  0  0  0  0  0  0  0  0
   31.4410   35.7250   30.8540 O   0  0  0  0  0  0  0  0  0  0  0  0
   34.1560   36.1360   28.5070 C   0  0  0  0  0  0  0  0  0  0  0  0
   38.2260   36.2080   28.1710 C   0  0  0  0  0  0  0  0  0  0  0  0
   38.5450   34.6520   29.7620 N   0  0  0  0  0  0  0  0  0  0  0  0
   40.3910   31.7160   32.6180 O   0  0  0  0  0  0  0  0  0  0  0  0
   32.0110   35.8230   29.7590 C   0  0  0  0  0  0  0  0  0  0  0  0
   36.4390   34.2650   30.9670 C   0  0  0  0  0  0  0  0  0  0  0  0
   38.9710   34.0210   30.7220 C   0  0  0  0  0  0  0  0  0  0  0  0
   37.5850   33.4830   31.3100 C   0  0  0  0  0  0  0  0  0  0  0  0
   39.9270   33.3060   31.2520 N   0  0  0  0  0  0  0  0  0  0  0  0
   33.3910   35.2860   29.5800 C   0  0  0  0  0  0  0  0  0  0  0  0
   39.4260   35.6980   26.9370 S   0  0  0  0  0  0  0  0  0  0  0  0
  1 12  1  0
  2  4  1  0
  3  5  1  0
  3 13  1  0
  4 11  2  0
  5  8  1  0
  6  9  1  0
  6  3  1  0
  6 10  1  0
  8 17  1  0
 10 14  2  0
 12  7  2  0
 13 15  1  0
 14 16  1  0
 14 15  1  0
 15  2  2  0
 16  4  1  0
 17 12  1  0
 18  9  1  0
M  END
$$$$

     RDKit          3D

 13 13  0  0  0  0  0  0  0  0999 V2000
   39.5070   35.6970   26.5870 O   0  0  0  0  0  0  0  0  0  0  0  0
   39.5020   35.0410   29.1600 C   0  0  0  0  0  0  0  0  0  0  0  0
   41.0110   34.6070   29.1040 C   0  0  0  0  0  0  0  0  0  0  0  0
   37.8460   32.7100   31.1890 S   0  0  0  0  0  0  0  0  0  0  0  0
   35.9160   34.8780   30.2310 C   0  0  0  0  0  0  0  0  0  0  0  0
   37.4270   35.6990   28.1180 S   0  0  0  0  0  0  0  0  0  0  0  0
   38.4090   34.0420   29.9000 C   0  0  0  0  0  0  0  0  0  0  0  0
   38.9150   34.9720   27.7570 C   0  0  0  0  0  0  0  0  0  0  0  0
   33.6160   35.5420   30.4590 C   0  0  0  0  0  0  0  0  0  0  0  0
   35.1170   35.4060   30.4300 C   0  0  0  0  0  0  0  0  0  0  0  0
   38.7460   36.0590   25.3250 C   0  0  0  0  0  0  0  0  0  0  0  0
   33.1820   35.7790   29.0460 C   0  0  0  0  0  0  0  0  0  0  0  0
   37.1920   34.8530   29.5840 C   0  0  0  0  0  0  0  0  0  0  0  0
  2  3  1  0
  2  7  1  0
  5 10  1  0
  6 13  1  0
  7  4  1  0
  8  1  1  0
  8  6  1  0
  8  2  1  0
 10  9  1  0
 11  1  1  0
 12  9  1  0
 13  7  1  0
 13  5  1  0
M  END
$$$$

     RDKit          3D

 24 25  0  0  0  0  0  0  0  0999 V2000
   29.3950   35.7020   31.0280 C   0  0  0  0  0  0  0  0  0  0  0  0
   41.8890   37.4170   27.1850 C   0  0  0  0  0  0  0  0  0  0  0  0
   36.8500   34.8340   30.6190 C   0  0  0  0  0  0  0  0  0  0  0  0
   34.2200   35.3880   30.2220 C   0  0  0  0  0  0  0  0  0  0  0  0
   36.4750   35.4770   29.4550 C   0  0  0  0  0  0  0  0  0  0  0  0
   42.4660   38.1150   25.9630 C   0  0  0  0  0  0  0  0  0  0  0  0
   40.8660   34.6060   27.9230 O   0  0  0  0  0  0  0  0  0  0  0  0
   40.7090   36.6040   26.6930 C   0  0  0  0  0  0  0  0  0  0  0  0
   37.7400   37.0810   28.3350 O   0  0  0  0  0  0  0  0  0  0  0  0
   32.9010   35.8010   29.9590 O   0  0  0  0  0  0  0  0  0  0  0  0
   31.7590   35.1910   30.5090 C   0  0  0  0  0  0  0  0  0  0  0  0
   42.0010   37.2350   24.8480 C   0  0  0  0  0  0  0  0  0  0  0  0
   41.2470   34.7450   25.1280 O   0  0  0  0  0  0  0  0  0  0  0  0
   42.0430   39.5830   26.0370 C   0  0  0  0  0  0  0  0  0  0  0  0
   30.6630   36.2350   30.5100 C   0  0  0  0  0  0  0  0  0  0  0  0
   44.0040   38.0820   26.1050 C   0  0  0  0  0  0  0  0  0  0  0  0
   34.5570   34.7940   31.4290 C   0  0  0  0  0  0  0  0  0  0  0  0
   35.1310   35.7450   29.2380 C   0  0  0  0  0  0  0  0  0  0  0  0
   35.9010   34.4780   31.5590 C   0  0  0  0  0  0  0  0  0  0  0  0
   39.9010   35.5310   27.4320 C   0  0  0  0  0  0  0  0  0  0  0  0
   28.2740   36.1670   30.2070 N   0  0  0  0  0  0  0  0  0  0  0  0
   41.6290   35.9740   25.6880 C   0  0  0  0  0  0  0  0  0  0  0  0
   37.6160   35.8890   28.5220 C   0  0  0  0  0  0  0  0  0  0  0  0
   38.6360   35.0010   28.0170 N   0  0  0  0  0  0  0  0  0  0  0  0
  3 19  1  0
  4 17  1  0
  5  3  2  0
  6 14  1  0
  6 16  1  0
  6  2  1  0
  8  2  1  0
  8 20  1  0
  9 23  2  0
 10  4  1  0
 10 11  1  0
 11 15  1  0
 12 22  1  0
 12  6  1  0
 15  1  1  0
 17 19  2  0
 18  5  1  0
 18  4  2  0
 20  7  2  0
 20 24  1  0
 21  1  1  0
 22 13  1  0
 22  8  1  0
 23  5  1  0
 24 23  1  0
M  END
$$$$

     RDKit          3D

 27 31  0  0  0  0  0  0  0  0999 V2000
   41.1260   34.9650   24.4440 C   0  0  0  0  0  0  0  0  0  0  0  0
   35.2330   35.0000   29.8120 C   0  0  0  0  0  0  0  0  0  0  0  0
   31.7730   35.7350   27.1300 O   0  0  0  0  0  0  0  0  0  0  0  0
   33.2870   36.2200   30.1200 N   0  0  0  0  0  0  0  0  0  0  0  0
   37.0570   33.3870   30.1670 C   0  0  0  0  0  0  0  0  0  0  0  0
   37.1420   32.4790   30.5820 C   0  0  0  0  0  0  0  0  0  0  0  0
   32.2570   37.5120   28.1410 O   0  0  0  0  0  0  0  0  0  0  0  0
   41.7250   35.7130   25.5840 N   0  0  0  0  0  0  0  0  0  0  0  0
   34.1690   35.7930   29.5830 N   0  0  0  0  0  0  0  0  0  0  0  0
   39.2500   36.6460   26.0530 C   0  0  0  0  0  0  0  0  0  0  0  0
   40.9510   36.2990   27.5490 C   0  0  0  0  0  0  0  0  0  0  0  0
   38.5010   37.5030   25.0860 C   0  0  0  0  0  0  0  0  0  0  0  0
   41.2080   34.5410   26.0460 C   0  0  0  0  0  0  0  0  0  0  0  0
   38.5420   36.2050   27.0400 N   0  0  0  0  0  0  0  0  0  0  0  0
   41.7870   33.3300   26.2280 O   0  0  0  0  0  0  0  0  0  0  0  0
   32.8910   34.0510   28.3410 C   0  0  0  0  0  0  0  0  0  0  0  0
   32.2520   36.2880   28.0730 C   0  0  0  0  0  0  0  0  0  0  0  0
   37.5480   35.1690   28.9560 C   0  0  0  0  0  0  0  0  0  0  0  0
   36.3940   34.4870   29.6060 C   0  0  0  0  0  0  0  0  0  0  0  0
   35.2390   35.5170   31.0920 C   0  0  0  0  0  0  0  0  0  0  0  0
   32.9280   35.4040   29.0400 C   0  0  0  0  0  0  0  0  0  0  0  0
   38.4850   35.2780   28.0160 C   0  0  0  0  0  0  0  0  0  0  0  0
   40.8660   36.7870   26.1120 C   0  0  0  0  0  0  0  0  0  0  0  0
   35.0390   36.1460   31.8850 O   0  0  0  0  0  0  0  0  0  0  0  0
   39.5330   34.5690   28.1470 N   0  0  0  0  0  0  0  0  0  0  0  0
   41.1250   37.9230   25.3480 O   0  0  0  0  0  0  0  0  0  0  0  0
   40.6500   34.8460   27.4820 C   0  0  0  0  0  0  0  0  0  0  0  0
  1 13  1  0
  2 19  1  0
  2 20  1  0
  3 17  2  0
  5  6  3  0
  8  1  1  0
  8 13  1  0
  8 23  1  0
  9  2  1  0
  9  4  1  0
  9 20  1  0
 10 12  1  0
 10 23  1  0
 10 14  1  0
 13 15  1  0
 13 27  1  0
 14 22  2  0
 17  7  1  0
 17 21  1  0
 19 18  1  0
 19  5  1  0
 20 24  1  0
 21 16  1  0
 21  9  1  0
 21  4  1  0
 22 25  1  0
 22 18  1  0
 23 26  1  0
 23 11  1  0
 27 11  1  0
 27 25  1  0
M  END
$$$$

     RDKit          3D

 26 27  0  0  0  0  0  0  0  0999 V2000
   41.6910   39.1320   23.9340 C   0  0  0  0  0  0  0  0  0  0  0  0
   34.9630   31.9220   32.5210 N   0  0  0  0  0  0  0  0  0  0  0  0
   36.1680   31.5010   32.8520 C   0  0  0  0  0  0  0  0  0  0  0  0
   35.4110   35.6470   28.5140 C   0  0  0  0  0  0  0  0  0  0  0  0
   39.2440   32.8660   28.0490 O   0  0  0  0  0  0  0  0  0  0  0  0
   38.3250   35.6620   28.0980 C   0  0  0  0  0  0  0  0  0  0  0  0
   39.9670   37.1840   26.3630 C   0  0  0  0  0  0  0  0  0  0  0  0
   41.0780   33.5640   27.1920 O   0  0  0  0  0  0  0  0  0  0  0  0
   39.4700   35.1570   27.6270 C   0  0  0  0  0  0  0  0  0  0  0  0
   38.7600   37.8010   27.0310 C   0  0  0  0  0  0  0  0  0  0  0  0
   40.3490   35.9480   26.9270 N   0  0  0  0  0  0  0  0  0  0  0  0
   36.3930   35.5590   29.6180 C   0  0  0  0  0  0  0  0  0  0  0  0
   37.5730   35.0600   29.1280 C   0  0  0  0  0  0  0  0  0  0  0  0
   37.8550   30.7850   34.4960 O   0  0  0  0  0  0  0  0  0  0  0  0
   42.8300   39.8630   24.6640 C   0  0  0  0  0  0  0  0  0  0  0  0
   37.8850   34.0850   29.7610 O   0  0  0  0  0  0  0  0  0  0  0  0
   39.9710   33.8570   27.7010 C   0  0  0  0  0  0  0  0  0  0  0  0
   36.6120   30.4980   33.8840 C   0  0  0  0  0  0  0  0  0  0  0  0
   40.9930   38.2850   26.1990 C   0  0  0  0  0  0  0  0  0  0  0  0
   39.4030   39.1760   24.7190 C   0  0  0  0  0  0  0  0  0  0  0  0
   40.7290   39.0670   25.0280 N   0  0  0  0  0  0  0  0  0  0  0  0
   35.9020   34.5940   30.6780 C   0  0  0  0  0  0  0  0  0  0  0  0
   37.8380   36.8420   27.6500 C   0  0  0  0  0  0  0  0  0  0  0  0
   36.0520   33.5040   31.3750 C   0  0  0  0  0  0  0  0  0  0  0  0
   34.9210   33.0220   31.8620 C   0  0  0  0  0  0  0  0  0  0  0  0
   37.1850   32.5330   32.0920 S   0  0  0  0  0  0  0  0  0  0  0  0
  1 15  1  0
  1 21  1  0
  2  3  2  0
  3 18  1  0
  6 13  1  0
  7 19  1  0
  7 11  1  0
  7 10  1  0
  8 17  2  0
  9 17  1  0
  9  6  1  0
 10 23  1  0
 11  9  1  0
 12  4  1  0
 12 22  1  0
 13 12  1  0
 13 16  2  0
 17  5  1  0
 18 14  1  0
 20 21  1  0
 21 19  1  0
 22 24  1  0
 23  6  1  0
 24 25  2  0
 24 26  1  0
 25  2  1  0
 26  3  1  0
M  END
$$$$

     RDKit          3D

 10 10  0  0  0  0  0  0  0  0999 V2000
   38.6180   36.9040   26.4810 C   0  0  0  0  0  0  0  0  0  0  0  0
   36.1080   34.8810   28.3460 N   0  0  0  0  0  0  0  0  0  0  0  0
   36.5690   35.7490   27.5380 C   0  0  0  0  0  0  0  0  0  0  0  0
   33.4330   35.9780   27.6420 N   0  0  0  0  0  0  0  0  0  0  0  0
   38.0380   35.8950   27.3900 C   0  0  0  0  0  0  0  0  0  0  0  0
   37.8420   37.7780   25.7530 C   0  0  0  0  0  0  0  0  0  0  0  0
   34.3110   36.5260   26.6060 C   0  0  0  0  0  0  0  0  0  0  0  0
   36.3420   37.5280   25.7980 C   0  0  0  0  0  0  0  0  0  0  0  0
   38.8510   35.0480   27.9230 O   0  0  0  0  0  0  0  0  0  0  0  0
   35.7950   36.6080   26.6590 C   0  0  0  0  0  0  0  0  0  0  0  0
  1  5  1  0
  3  2  1  0
  5  3  2  0
  5  9  1  0
  6  8  1  0
  6  1  2  0
  7 10  1  0
  7  4  1  0
  8 10  2  0
 10  3  1  0
M  END
$$$$

     RDKit          3D

 11 11  0  0  0  0  0  0  0  0999 V2000
   33.6800   36.5540   26.4920 S   0  0  0  0  0  0  0  0  0  0  0  0
   35.3280   36.5510   26.4780 C   0  0  0  0  0  0  0  0  0  0  0  0
   35.6650   36.9460   25.0950 C   0  0  0  0  0  0  0  0  0  0  0  0
   33.3820   37.0780   25.0950 C   0  0  0  0  0  0  0  0  0  0  0  0
   36.2850   36.1510   27.4980 C   0  0  0  0  0  0  0  0  0  0  0  0
   37.1010   37.2470   24.0970 S   0  0  0  0  0  0  0  0  0  0  0  0
   34.5010   37.1450   24.5190 C   0  0  0  0  0  0  0  0  0  0  0  0
   37.2580   35.5860   27.1560 N   0  0  0  0  0  0  0  0  0  0  0  0
   38.7490   33.9660   28.3650 N   0  0  0  0  0  0  0  0  0  0  0  0
   39.1040   34.4500   27.2470 C   0  0  0  0  0  0  0  0  0  0  0  0
   38.6140   35.8390   26.8150 C   0  0  0  0  0  0  0  0  0  0  0  0
  2  1  1  0
  2  5  1  0
  3  2  2  0
  4  1  1  0
  6  3  1  0
  7  3  1  0
  7  4  2  0
  8  5  1  0
 10  9  2  0
 11  8  1  0
 11 10  1  0
M  END
$$$$

     RDKit          3D

  9  9  0  0  0  0  0  0  0  0999 V2000
   38.6730   35.2010   27.4500 C   0  0  0  0  0  0  0  0  0  0  0  0
   40.2550   36.8840   27.3620 C   0  0  0  0  0  0  0  0  0  0  0  0
   41.9920   35.4590   27.2220 O   0  0  0  0  0  0  0  0  0  0  0  0
   39.0350   37.3430   27.0060 N   0  0  0  0  0  0  0  0  0  0  0  0
   36.8160   36.8550   26.7880 C   0  0  0  0  0  0  0  0  0  0  0  0
   40.1490   34.7320   25.8700 C   0  0  0  0  0  0  0  0  0  0  0  0
   38.1460   36.3390   27.2110 C   0  0  0  0  0  0  0  0  0  0  0  0
   40.3480   35.4150   27.1950 C   0  0  0  0  0  0  0  0  0  0  0  0
   40.3620   33.4040   25.8080 O   0  0  0  0  0  0  0  0  0  0  0  0
  4  7  1  0
  4  2  1  0
  6  8  1  0
  7  5  1  0
  7  1  1  0
  8  3  1  0
  8  2  1  0
  8  1  1  0
  9  6  1  0
M  END
$$$$

     RDKit          3D

 14 14  0  0  0  0  0  0  0  0999 V2000
   40.6650   33.4160   28.0650 O   0  0  0  0  0  0  0  0  0  0  0  0
   38.9730   34.2190   29.0430 C   0  0  0  0  0  0  0  0  0  0  0  0
   34.4070   36.5250   29.4180 O   0  0  0  0  0  0  0  0  0  0  0  0
   37.0330   35.6350   28.5440 C   0  0  0  0  0  0  0  0  0  0  0  0
   39.8180   34.5830   27.8010 C   0  0  0  0  0  0  0  0  0  0  0  0
   35.7290   35.5800   28.7280 C   0  0  0  0  0  0  0  0  0  0  0  0
   37.9280   34.8500   29.1640 C   0  0  0  0  0  0  0  0  0  0  0  0
   38.8210   36.8730   28.2770 O   0  0  0  0  0  0  0  0  0  0  0  0
   34.9020   36.5290   28.3730 C   0  0  0  0  0  0  0  0  0  0  0  0
   39.7910   36.0720   27.5650 C   0  0  0  0  0  0  0  0  0  0  0  0
   40.4350   37.1640   26.7670 C   0  0  0  0  0  0  0  0  0  0  0  0
   41.2150   36.4900   25.7710 O   0  0  0  0  0  0  0  0  0  0  0  0
   37.4930   36.6130   27.6920 O   0  0  0  0  0  0  0  0  0  0  0  0
   34.7980   37.1790   27.2730 O   0  0  0  0  0  0  0  0  0  0  0  0
  2  7  1  0
  4  6  2  3
  4  7  1  0
  5  1  1  0
  5  2  1  0
  9  6  1  0
  9  3  1  0
 10 11  1  0
 10  5  1  0
 10  8  1  0
 12 11  1  0
 13  8  1  0
 13  4  1  0
 14  9  2  0
M  END
$$$$

     RDKit          3D

  9 10  0  0  0  0  0  0  0  0999 V2000
   39.9710   35.8620   24.9360 C   0  0  0  0  0  0  0  0  0  0  0  0
   42.1880   38.2400   27.9560 O   0  0  0  0  0  0  0  0  0  0  0  0
   39.5140   34.4070   25.3520 O   0  0  0  0  0  0  0  0  0  0  0  0
   40.7350   36.9390   26.7600 C   0  0  0  0  0  0  0  0  0  0  0  0
   39.6420   36.7860   26.0400 C   0  0  0  0  0  0  0  0  0  0  0  0
   40.6900   34.7140   28.1560 C   0  0  0  0  0  0  0  0  0  0  0  0
   39.1430   37.1040   24.8030 C   0  0  0  0  0  0  0  0  0  0  0  0
   41.5410   35.7300   27.3570 C   0  0  0  0  0  0  0  0  0  0  0  0
   41.4860   37.0760   28.0840 C   0  0  0  0  0  0  0  0  0  0  0  0
  1  3  1  0
  1  5  1  0
  4  5  1  0
  4  8  1  0
  4  9  1  0
  5  7  1  0
  7  1  1  0
  8  9  1  0
  8  6  1  0
  9  2  1  0
M  END
$$$$

     RDKit          3D

  7  7  0  0  0  0  0  0  0  0999 V2000
   40.1850   36.3040   25.3100 N   0  0  0  0  0  0  0  0  0  0  0  0
   41.2460   36.5940   27.2960 N   0  0  0  0  0  0  0  0  0  0  0  0
   40.1950   37.1170   26.1560 C   0  0  0  0  0  0  0  0  0  0  0  0
   41.9470   35.6620   26.6830 C   0  0  0  0  0  0  0  0  0  0  0  0
   41.3020   35.2240   25.6530 C   0  0  0  0  0  0  0  0  0  0  0  0
   42.4650   33.8480   23.8160 N   0  0  0  0  0  0  0  0  0  0  0  0
   41.3960   34.8110   24.0270 C   0  0  0  0  0  0  0  0  0  0  0  0
  1  5  1  0
  1  3  1  0
  3  2  1  0
  4  2  1  0
  5  7  1  0
  5  4  1  0
  6  7  1  0
M  END
$$$$

     RDKit          3D

 10 10  0  0  0  0  0  0  0  0999 V2000
   40.1700   35.0010   27.5280 C   0  0  0  0  0  0  0  0  0  0  0  0
   37.1640   37.2290   27.9960 F   0  0  0  0  0  0  0  0  0  0  0  0
   39.1030   35.9170   28.1220 C   0  0  0  0  0  0  0  0  0  0  0  0
   41.7940   34.0540   26.2520 C   0  0  0  0  0  0  0  0  0  0  0  0
   37.6210   36.1700   26.6010 F   0  0  0  0  0  0  0  0  0  0  0  0
   41.3500   33.1790   27.1960 N   0  0  0  0  0  0  0  0  0  0  0  0
   37.9560   36.2860   27.7430 C   0  0  0  0  0  0  0  0  0  0  0  0
   40.3790   33.7550   27.9820 N   0  0  0  0  0  0  0  0  0  0  0  0
   37.8370   35.2020   28.5110 F   0  0  0  0  0  0  0  0  0  0  0  0
   40.9400   35.1520   26.3430 C   0  0  0  0  0  0  0  0  0  0  0  0
  1  8  1  0
  1  3  1  0
  4 10  1  0
  4  6  2  0
  5  7  1  0
  6  8  1  0
  7  2  1  0
  7  3  1  0
  7  9  1  0
 10  1  2  0
M  END
$$$$

     RDKit          3D

 17 18  0  0  0  0  0  0  0  0999 V2000
   34.1570   37.1300   26.0840 C   0  0  0  0  0  0  0  0  0  0  0  0
   42.2680   35.7680   27.6530 C   0  0  0  0  0  0  0  0  0  0  0  0
   41.2070   33.7650   27.1690 C   0  0  0  0  0  0  0  0  0  0  0  0
   42.3780   34.4690   27.4490 N   0  0  0  0  0  0  0  0  0  0  0  0
   39.9290   35.7450   27.7750 C   0  0  0  0  0  0  0  0  0  0  0  0
   35.6270   37.2410   26.7240 C   0  0  0  0  0  0  0  0  0  0  0  0
   41.0930   36.3490   27.9540 N   0  0  0  0  0  0  0  0  0  0  0  0
   38.2010   37.3370   28.0290 O   0  0  0  0  0  0  0  0  0  0  0  0
   38.6170   33.9620   27.4410 C   0  0  0  0  0  0  0  0  0  0  0  0
   36.4740   36.0160   26.6790 N   0  0  0  0  0  0  0  0  0  0  0  0
   33.0520   37.1990   28.4780 C   0  0  0  0  0  0  0  0  0  0  0  0
   33.1000   36.5960   27.0810 C   0  0  0  0  0  0  0  0  0  0  0  0
   37.8710   35.1880   27.4440 C   0  0  0  0  0  0  0  0  0  0  0  0
   41.3320   32.8750   26.3670 O   0  0  0  0  0  0  0  0  0  0  0  0
   43.3560   36.5160   27.6820 O   0  0  0  0  0  0  0  0  0  0  0  0
   39.9210   34.3870   27.4920 C   0  0  0  0  0  0  0  0  0  0  0  0
   38.6570   36.2430   27.7050 C   0  0  0  0  0  0  0  0  0  0  0  0
  1  6  1  0
  1 12  1  0
  2 15  2  0
  2  7  1  0
  3  4  1  0
  3 16  1  0
  4  2  1  0
  5  7  2  0
  9 13  1  0
  9 16  2  0
 10  6  1  0
 12 11  1  0
 13 10  1  0
 13 17  1  0
 14  3  2  0
 16  5  1  0
 17  5  1  0
 17  8  2  0
M  END
$$$$

     RDKit          3D

 23 25  0  0  0  0  0  0  0  0999 V2000
   33.4840   34.6180   30.6120 C   0  0  0  0  0  0  0  0  0  0  0  0
   31.4950   34.7850   31.5400 N   0  0  0  0  0  0  0  0  0  0  0  0
   38.8610   35.6050   27.2210 C   0  0  0  0  0  0  0  0  0  0  0  0
   30.0970   35.2620   31.6490 C   0  0  0  0  0  0  0  0  0  0  0  0
   32.2340   35.1230   30.4530 C   0  0  0  0  0  0  0  0  0  0  0  0
   32.3950   34.1510   32.4470 N   0  0  0  0  0  0  0  0  0  0  0  0
   31.8940   35.7330   29.3600 O   0  0  0  0  0  0  0  0  0  0  0  0
   36.3920   34.4270   29.5490 C   0  0  0  0  0  0  0  0  0  0  0  0
   34.5340   33.2940   32.2310 O   0  0  0  0  0  0  0  0  0  0  0  0
   33.5850   34.0200   31.8280 C   0  0  0  0  0  0  0  0  0  0  0  0
   35.1790   35.1060   29.1270 C   0  0  0  0  0  0  0  0  0  0  0  0
   39.1930   36.4050   26.1610 C   0  0  0  0  0  0  0  0  0  0  0  0
   40.1600   34.5590   27.7360 S   0  0  0  0  0  0  0  0  0  0  0  0
   38.4490   37.1410   25.4170 N   0  0  0  0  0  0  0  0  0  0  0  0
   37.5910   34.6420   28.8870 C   0  0  0  0  0  0  0  0  0  0  0  0
   42.4340   35.8540   27.3650 N   0  0  0  0  0  0  0  0  0  0  0  0
   31.9320   33.5690   33.6670 C   0  0  0  0  0  0  0  0  0  0  0  0
   41.1930   35.5190   26.7370 C   0  0  0  0  0  0  0  0  0  0  0  0
   35.2070   36.0590   28.1060 C   0  0  0  0  0  0  0  0  0  0  0  0
   34.1860   34.5950   29.7240 N   0  0  0  0  0  0  0  0  0  0  0  0
   36.4420   36.3510   27.4810 C   0  0  0  0  0  0  0  0  0  0  0  0
   37.5640   35.5940   27.8790 C   0  0  0  0  0  0  0  0  0  0  0  0
   40.5610   36.4210   26.1310 N   0  0  0  0  0  0  0  0  0  0  0  0
  1 10  1  0
  2  4  1  0
  2  6  1  0
  3 13  1  0
  3 22  1  0
  5  1  1  0
  5  2  1  0
  6 17  1  0
  7  5  2  0
 10  9  2  0
 10  6  1  0
 11  8  1  0
 11 20  1  0
 12  3  1  0
 14 12  2  0
 15  8  2  0
 18 16  1  0
 18 13  1  0
 19 11  2  0
 20  1  1  0
 21 22  2  0
 21 19  1  0
 22 15  1  0
 23 12  1  0
 23 18  1  0
M  END
$$$$
