
     RDKit          3D

 10  9  0  0  0  0  0  0  0  0999 V2000
   40.1100   37.8390   25.4040 O   0  0  0  0  0  0  0  0  0  0  0  0
   37.7270   36.9700   23.0340 O   0  0  0  0  0  0  0  0  0  0  0  0
   37.5240   33.8360   24.3430 O   0  0  0  0  0  0  0  0  0  0  0  0
   39.0440   35.0220   23.2000 C   0  0  0  0  0  0  0  0  0  0  0  0
   37.8000   34.2130   23.2540 C   0  0  0  0  0  0  0  0  0  0  0  0
   40.3170   38.7480   23.0870 N   0  0  0  0  0  0  0  0  0  0  0  0
   40.0970   37.5600   23.8920 P   0  0  0  0  0  0  0  0  0  0  0  0
   41.4200   36.5400   23.6590 O   0  0  0  0  0  0  0  0  0  0  0  0
   39.0550   36.4820   22.8080 C   0  0  0  0  0  0  0  0  0  0  0  0
   39.3580   36.6440   21.2710 C   0  0  0  0  0  0  0  0  0  0  0  0
  4  5  1  0
  5  3  1  0
  7  6  1  0
  7  1  1  0
  8  7  2  0
  9 10  1  0
  9  2  1  0
  9  4  1  0
  9  7  1  0
M  END
$$$$

     RDKit          3D

  6  5  0  0  0  0  0  0  0  0999 V2000
   40.9780   37.8990   23.1590 O   0  0  0  0  0  0  0  0  0  0  0  0
   40.1140   35.9540   24.1660 C   0  0  0  0  0  0  0  0  0  0  0  0
   39.1840   35.9810   25.0290 N   0  0  0  0  0  0  0  0  0  0  0  0
   40.8710   34.6480   23.4180 C   0  0  0  0  0  0  0  0  0  0  0  0
   42.1620   36.9890   24.7940 O   0  0  0  0  0  0  0  0  0  0  0  0
   41.1370   37.0380   24.0800 C   0  0  0  0  0  0  0  0  0  0  0  0
  1  6  2  0
  2  3  2  0
  4  2  1  0
  6  2  1  0
  6  5  1  0
M  END
$$$$

     RDKit          3D

  9  8  0  0  0  0  0  0  0  0999 V2000
   40.2220   36.6920   22.4830 O   0  0  0  0  0  0  0  0  0  0  0  0
   38.6210   37.0990   24.3670 N   0  0  0  0  0  0  0  0  0  0  0  0
   37.2350   35.1380   21.9970 C   0  0  0  0  0  0  0  0  0  0  0  0
   39.3110   34.9140   23.5200 C   0  0  0  0  0  0  0  0  0  0  0  0
   36.2360   34.5410   21.6010 O   0  0  0  0  0  0  0  0  0  0  0  0
   40.0260   34.6660   25.1700 Cl  0  0  0  0  0  0  0  0  0  0  0  0
   37.4950   36.4590   21.2560 C   0  0  0  0  0  0  0  0  0  0  0  0
   39.4060   36.4140   23.5150 C   0  0  0  0  0  0  0  0  0  0  0  0
   38.0110   34.4810   23.1070 N   0  0  0  0  0  0  0  0  0  0  0  0
  1  8  2  0
  3  9  1  0
  4  6  1  0
  5  3  2  0
  7  3  1  0
  8  4  1  0
  8  2  1  0
  9  4  1  0
M  END
$$$$

     RDKit          3D

 21 22  0  0  0  0  0  0  0  0999 V2000
   41.5680   37.9600   25.2100 C   0  0  0  0  0  0  0  0  0  0  0  0
   40.7510   36.1770   23.7160 C   0  0  0  0  0  0  0  0  0  0  0  0
   37.7600   35.9600   26.5160 C   0  0  0  0  0  0  0  0  0  0  0  0
   42.4620   38.5860   25.5200 O   0  0  0  0  0  0  0  0  0  0  0  0
   39.8350   36.0460   25.0710 C   0  0  0  0  0  0  0  0  0  0  0  0
   36.6730   36.7060   27.1740 C   0  0  0  0  0  0  0  0  0  0  0  0
   39.9060   34.5390   25.3520 C   0  0  0  0  0  0  0  0  0  0  0  0
   35.9720   36.3510   28.3430 C   0  0  0  0  0  0  0  0  0  0  0  0
   41.8320   38.1520   22.9490 O   0  0  0  0  0  0  0  0  0  0  0  0
   44.2890   39.5850   24.2420 C   0  0  0  0  0  0  0  0  0  0  0  0
   40.6230   37.7950   25.8480 O   0  0  0  0  0  0  0  0  0  0  0  0
   35.3880   34.4640   29.9640 N   0  0  0  0  0  0  0  0  0  0  0  0
   42.2130   40.9750   24.6740 C   0  0  0  0  0  0  0  0  0  0  0  0
   36.7590   35.8280   29.1620 N   0  0  0  0  0  0  0  0  0  0  0  0
   38.7310   36.7320   25.6610 C   0  0  0  0  0  0  0  0  0  0  0  0
   38.1550   34.6930   27.0690 C   0  0  0  0  0  0  0  0  0  0  0  0
   38.5770   33.9950   25.7460 C   0  0  0  0  0  0  0  0  0  0  0  0
   40.5920   33.6400   24.6730 F   0  0  0  0  0  0  0  0  0  0  0  0
   43.1910   39.9050   25.1590 C   0  0  0  0  0  0  0  0  0  0  0  0
   35.8160   35.3380   28.9990 C   0  0  0  0  0  0  0  0  0  0  0  0
   41.6630   37.3250   23.9600 C   0  0  0  0  0  0  0  0  0  0  0  0
  1  4  1  0
  1 11  2  0
  2 21  1  0
  3 16  1  0
  3  6  1  0
  5  2  1  0
  5  7  1  0
  5 15  1  0
  7 18  1  0
  7 17  1  0
  8  6  1  0
  8 20  1  0
  8 14  1  0
 10 19  1  0
 13 19  1  0
 15  3  1  0
 17 16  1  0
 19  4  1  0
 20 14  1  0
 20 12  1  0
 21  9  1  0
 21  1  1  0
M  END
$$$$

     RDKit          3D

 13 13  0  0  0  0  0  0  0  0999 V2000
   36.8200   36.0430   25.6070 C   0  0  0  0  0  0  0  0  0  0  0  0
   35.2300   34.6550   28.2980 N   0  0  0  0  0  0  0  0  0  0  0  0
   38.3260   34.6000   28.2970 O   0  0  0  0  0  0  0  0  0  0  0  0
   39.6880   37.4330   24.7330 O   0  0  0  0  0  0  0  0  0  0  0  0
   39.9950   35.2030   23.9160 C   0  0  0  0  0  0  0  0  0  0  0  0
   36.9110   36.2630   27.2030 C   0  0  0  0  0  0  0  0  0  0  0  0
   39.0920   35.6350   26.1670 C   0  0  0  0  0  0  0  0  0  0  0  0
   40.3330   34.0350   24.2120 O   0  0  0  0  0  0  0  0  0  0  0  0
   39.8320   35.6030   22.6900 O   0  0  0  0  0  0  0  0  0  0  0  0
   36.0940   35.8430   28.4570 C   0  0  0  0  0  0  0  0  0  0  0  0
   38.3470   35.8230   27.5460 C   0  0  0  0  0  0  0  0  0  0  0  0
   37.8080   35.2170   25.2500 O   0  0  0  0  0  0  0  0  0  0  0  0
   40.0630   36.1640   25.1080 C   0  0  0  0  0  0  0  0  0  0  0  0
  1  6  1  0
  2 10  1  0
  5  8  1  0
  5 13  1  0
  6 11  1  0
  6 10  1  0
  7 13  1  0
  7 11  1  0
  9  5  2  0
 11  3  1  0
 12  1  1  0
 12  7  1  0
 13  4  1  0
M  END
$$$$

     RDKit          3D

  7  6  0  0  0  0  0  0  0  0999 V2000
   39.8370   35.1170   22.6840 C   0  0  0  0  0  0  0  0  0  0  0  0
   38.3740   35.1530   23.2270 C   0  0  0  0  0  0  0  0  0  0  0  0
   40.6890   36.3590   24.3920 F   0  0  0  0  0  0  0  0  0  0  0  0
   39.8460   37.5740   22.7230 F   0  0  0  0  0  0  0  0  0  0  0  0
   40.5830   36.4020   23.0260 C   0  0  0  0  0  0  0  0  0  0  0  0
   41.9890   36.6960   22.5130 C   0  0  0  0  0  0  0  0  0  0  0  0
   37.5490   36.3650   23.2440 N   0  0  0  0  0  0  0  0  0  0  0  0
  1  5  1  0
  1  2  1  0
  2  7  1  0
  4  5  1  0
  5  3  1  0
  6  5  1  0
M  END
$$$$

     RDKit          3D

 25 26  0  0  0  0  0  0  0  0999 V2000
   40.5080   37.3130   24.5610 C   0  0  0  0  0  0  0  0  0  0  0  0
   40.7740   37.4400   21.1080 O   0  0  0  0  0  0  0  0  0  0  0  0
   31.8400   33.2100   30.5650 Cl  0  0  0  0  0  0  0  0  0  0  0  0
   35.5760   34.6790   27.9750 C   0  0  0  0  0  0  0  0  0  0  0  0
   36.6980   36.8410   27.3500 O   0  0  0  0  0  0  0  0  0  0  0  0
   36.0710   36.0310   27.9690 C   0  0  0  0  0  0  0  0  0  0  0  0
   34.0160   32.8500   31.6250 C   0  0  0  0  0  0  0  0  0  0  0  0
   39.2500   33.8540   25.4460 C   0  0  0  0  0  0  0  0  0  0  0  0
   42.8020   38.6280   21.9100 O   0  0  0  0  0  0  0  0  0  0  0  0
   37.4520   36.3150   28.3750 C   0  0  0  0  0  0  0  0  0  0  0  0
   42.0930   38.9380   24.4380 C   0  0  0  0  0  0  0  0  0  0  0  0
   41.7690   37.5500   22.2300 P   0  0  0  0  0  0  0  0  0  0  0  0
   35.4310   34.1030   29.3330 C   0  0  0  0  0  0  0  0  0  0  0  0
   41.2560   38.0230   23.8010 C   0  0  0  0  0  0  0  0  0  0  0  0
   38.9470   35.8510   26.7420 C   0  0  0  0  0  0  0  0  0  0  0  0
   40.4630   36.0840   25.2490 C   0  0  0  0  0  0  0  0  0  0  0  0
   42.5650   36.1740   22.2730 O   0  0  0  0  0  0  0  0  0  0  0  0
   34.1170   33.9120   29.6250 C   0  0  0  0  0  0  0  0  0  0  0  0
   40.1000   36.3250   26.5000 C   0  0  0  0  0  0  0  0  0  0  0  0
   33.6180   33.2500   30.6270 C   0  0  0  0  0  0  0  0  0  0  0  0
   36.4270   33.4340   31.4120 C   0  0  0  0  0  0  0  0  0  0  0  0
   35.3940   32.9030   32.1000 C   0  0  0  0  0  0  0  0  0  0  0  0
   38.5190   34.6200   26.4420 N   0  0  0  0  0  0  0  0  0  0  0  0
   36.4550   33.8580   30.1700 C   0  0  0  0  0  0  0  0  0  0  0  0
   38.6460   36.2370   28.0770 N   0  0  0  0  0  0  0  0  0  0  0  0
  1 16  1  0
  2 12  2  0
  3 20  1  0
  4 13  1  0
  5  6  1  0
  5 10  1  0
  6  4  1  0
  6 10  1  0
  7 22  1  0
  8 23  1  0
  9 12  1  0
 10 25  1  0
 12 17  1  0
 12 14  1  0
 13 18  2  0
 13 24  1  0
 14 11  1  0
 14  1  1  0
 15 19  1  0
 15 25  1  0
 16 19  1  0
 18 20  1  0
 20  7  2  0
 21 22  1  0
 23 15  1  0
 24 21  2  0
M  END
$$$$

     RDKit          3D

 12 12  0  0  0  0  0  0  0  0999 V2000
   38.1900   34.9550   26.9310 N   0  0  0  0  0  0  0  0  0  0  0  0
   35.9630   34.5310   29.8020 C   0  0  0  0  0  0  0  0  0  0  0  0
   36.5310   35.1490   28.7650 C   0  0  0  0  0  0  0  0  0  0  0  0
   37.5560   34.4920   28.0530 C   0  0  0  0  0  0  0  0  0  0  0  0
   39.5530   33.2190   26.2670 O   0  0  0  0  0  0  0  0  0  0  0  0
   34.9940   34.6640   30.7270 C   0  0  0  0  0  0  0  0  0  0  0  0
   39.1890   34.3560   26.0630 C   0  0  0  0  0  0  0  0  0  0  0  0
   37.1560   32.7940   29.6440 C   0  0  0  0  0  0  0  0  0  0  0  0
   41.1280   35.1550   24.9660 O   0  0  0  0  0  0  0  0  0  0  0  0
   36.2320   33.5350   30.2060 N   0  0  0  0  0  0  0  0  0  0  0  0
   37.8410   33.2070   28.5500 C   0  0  0  0  0  0  0  0  0  0  0  0
   39.7210   35.2770   24.9650 C   0  0  0  0  0  0  0  0  0  0  0  0
  1  4  1  0
  2 10  1  0
  2  6  1  0
  3  2  2  0
  4 11  2  0
  4  3  1  0
  7  5  2  0
  7  1  1  0
  8 10  2  0
 11  8  1  0
 12  9  1  0
 12  7  1  0
M  END
$$$$

     RDKit          3D

 17 16  0  0  0  0  0  0  0  0999 V2000
   36.6930   33.9610   33.2760 C   0  0  0  0  0  0  0  0  0  0  0  0
   40.4370   37.8450   27.7880 C   0  0  0  0  0  0  0  0  0  0  0  0
   40.2700   37.5980   23.1170 C   0  0  0  0  0  0  0  0  0  0  0  0
   35.6190   32.8430   33.0230 C   0  0  0  0  0  0  0  0  0  0  0  0
   37.5050   35.0470   29.4980 C   0  0  0  0  0  0  0  0  0  0  0  0
   40.5090   36.5870   25.7710 N   0  0  0  0  0  0  0  0  0  0  0  0
   40.3740   36.3680   27.2000 C   0  0  0  0  0  0  0  0  0  0  0  0
   39.1660   35.5660   27.6690 C   0  0  0  0  0  0  0  0  0  0  0  0
   36.6710   34.4230   34.3960 O   0  0  0  0  0  0  0  0  0  0  0  0
   40.0870   35.3080   22.2060 C   0  0  0  0  0  0  0  0  0  0  0  0
   40.8270   36.2330   23.3910 C   0  0  0  0  0  0  0  0  0  0  0  0
   37.5610   34.3860   32.0820 C   0  0  0  0  0  0  0  0  0  0  0  0
   41.1740   38.8210   23.1200 C   0  0  0  0  0  0  0  0  0  0  0  0
   40.4780   35.7110   24.8040 C   0  0  0  0  0  0  0  0  0  0  0  0
   38.8740   35.6220   29.1920 C   0  0  0  0  0  0  0  0  0  0  0  0
   36.8620   35.0640   30.9000 C   0  0  0  0  0  0  0  0  0  0  0  0
   39.9870   34.6030   24.9440 O   0  0  0  0  0  0  0  0  0  0  0  0
  1  9  2  0
  3 13  1  0
  3 11  1  0
  4  1  1  0
  5 16  1  0
  6  7  1  0
  7  8  1  0
  7  2  1  0
  8 15  1  0
 11 10  1  0
 11 14  1  0
 12  1  1  0
 14 17  2  0
 14  6  1  0
 15  5  1  0
 16 12  1  0
M  END
$$$$

     RDKit          3D

 11 11  0  0  0  0  0  0  0  0999 V2000
   40.7120   37.6640   23.9300 O   0  0  0  0  0  0  0  0  0  0  0  0
   38.3130   35.4160   22.7880 C   0  0  0  0  0  0  0  0  0  0  0  0
   39.9780   38.2510   21.3540 C   0  0  0  0  0  0  0  0  0  0  0  0
   37.7620   38.4850   22.0660 O   0  0  0  0  0  0  0  0  0  0  0  0
   38.8480   36.6960   22.9540 C   0  0  0  0  0  0  0  0  0  0  0  0
   40.3580   34.9880   23.4900 C   0  0  0  0  0  0  0  0  0  0  0  0
   37.0160   35.1360   22.7010 O   0  0  0  0  0  0  0  0  0  0  0  0
   39.0900   34.5130   23.6540 C   0  0  0  0  0  0  0  0  0  0  0  0
   39.0790   37.9650   22.1370 C   0  0  0  0  0  0  0  0  0  0  0  0
   41.5470   34.9290   24.5090 C   0  0  0  0  0  0  0  0  0  0  0  0
   40.2520   36.4770   23.3820 C   0  0  0  0  0  0  0  0  0  0  0  0
  2  7  1  0
  2  5  1  0
  2  8  1  0
  3  9  2  0
  4  9  1  0
  5  9  1  0
  5 11  1  0
  6  8  1  0
  6 10  1  0
 11  6  1  0
 11  1  1  0
M  END
$$$$

     RDKit          3D

 11 11  0  0  0  0  0  0  0  0999 V2000
   37.9240   35.7010   28.2480 C   0  0  0  0  0  0  0  0  0  0  0  0
   37.4270   34.8200   28.8890 C   0  0  0  0  0  0  0  0  0  0  0  0
   36.2460   35.3430   32.3990 C   0  0  0  0  0  0  0  0  0  0  0  0
   38.0340   36.4740   27.2080 C   0  0  0  0  0  0  0  0  0  0  0  0
   37.6800   34.9020   32.4480 C   0  0  0  0  0  0  0  0  0  0  0  0
   39.4240   36.3660   25.5040 C   0  0  0  0  0  0  0  0  0  0  0  0
   38.2020   35.0860   31.0530 C   0  0  0  0  0  0  0  0  0  0  0  0
   37.4610   34.3910   30.1210 N   0  0  0  0  0  0  0  0  0  0  0  0
   36.4800   33.4870   30.6180 C   0  0  0  0  0  0  0  0  0  0  0  0
   38.0500   35.9050   25.7820 C   0  0  0  0  0  0  0  0  0  0  0  0
   35.6100   34.1710   31.6690 C   0  0  0  0  0  0  0  0  0  0  0  0
  1  2  2  3
  2  8  1  0
  3  5  1  0
  4  1  1  0
  6 10  1  0
  7  5  1  0
  8  9  1  0
  8  7  1  0
  9 11  1  0
 10  4  1  0
 11  3  1  0
M  END
$$$$

     RDKit          3D

  9  9  0  0  0  0  0  0  0  0999 V2000
   39.6840   38.5100   22.3900 C   0  0  0  0  0  0  0  0  0  0  0  0
   39.4880   33.8060   23.7270 O   0  0  0  0  0  0  0  0  0  0  0  0
   38.8570   37.4210   22.9480 C   0  0  0  0  0  0  0  0  0  0  0  0
   40.9070   38.1400   24.1650 C   0  0  0  0  0  0  0  0  0  0  0  0
   39.8980   37.0200   24.2610 C   0  0  0  0  0  0  0  0  0  0  0  0
   39.3930   35.8640   24.6310 N   0  0  0  0  0  0  0  0  0  0  0  0
   37.6410   34.8330   23.4080 O   0  0  0  0  0  0  0  0  0  0  0  0
   40.2200   39.2660   23.4170 C   0  0  0  0  0  0  0  0  0  0  0  0
   38.8970   34.8810   23.7020 C   0  0  0  0  0  0  0  0  0  0  0  0
  1  3  1  0
  1  8  1  0
  3  5  1  0
  4  5  1  0
  5  6  1  0
  7  9  2  0
  8  4  1  0
  9  2  1  0
  9  6  1  0
M  END
$$$$

     RDKit          3D

 14 13  0  0  0  0  0  0  0  0999 V2000
   34.8070   34.4940   31.4080 O   0  0  0  0  0  0  0  0  0  0  0  0
   34.9270   33.2370   31.7520 C   0  0  0  0  0  0  0  0  0  0  0  0
   38.9720   35.7270   23.8100 C   0  0  0  0  0  0  0  0  0  0  0  0
   37.5850   33.1230   27.9570 C   0  0  0  0  0  0  0  0  0  0  0  0
   39.2560   35.3760   25.2890 C   0  0  0  0  0  0  0  0  0  0  0  0
   35.5520   32.3890   30.8390 C   0  0  0  0  0  0  0  0  0  0  0  0
   40.6970   36.1660   22.0010 C   0  0  0  0  0  0  0  0  0  0  0  0
   34.3620   31.1710   30.5070 S   0  0  0  0  0  0  0  0  0  0  0  0
   38.6600   34.0560   25.7900 C   0  0  0  0  0  0  0  0  0  0  0  0
   38.4440   34.1620   27.3160 C   0  0  0  0  0  0  0  0  0  0  0  0
   36.7270   34.0770   29.0030 C   0  0  0  0  0  0  0  0  0  0  0  0
   36.3600   33.0720   29.9930 N   0  0  0  0  0  0  0  0  0  0  0  0
   39.9960   36.6990   23.2180 C   0  0  0  0  0  0  0  0  0  0  0  0
   34.1460   32.7730   32.6600 O   0  0  0  0  0  0  0  0  0  0  0  0
  1  2  2  0
  2 14  1  0
  3  5  1  0
  4 11  1  0
  5  9  1  0
  6  2  1  0
  7 13  1  0
  8  6  2  0
  9 10  1  0
 10  4  1  0
 11 12  1  0
 12  6  1  0
 13  3  1  0
M  END
$$$$

     RDKit          3D

 26 27  0  0  0  0  0  0  0  0999 V2000
   39.3850   37.5630   23.0640 O   0  0  0  0  0  0  0  0  0  0  0  0
   40.0660   34.7490   24.0590 C   0  0  0  0  0  0  0  0  0  0  0  0
   39.1440   36.8710   26.6950 N   0  0  0  0  0  0  0  0  0  0  0  0
   37.2960   34.4800   30.3790 C   0  0  0  0  0  0  0  0  0  0  0  0
   36.8020   33.0820   35.2950 C   0  0  0  0  0  0  0  0  0  0  0  0
   38.4210   35.6100   26.9650 C   0  0  0  0  0  0  0  0  0  0  0  0
   39.0000   34.2020   34.6980 C   0  0  0  0  0  0  0  0  0  0  0  0
   40.0350   37.1990   24.0190 C   0  0  0  0  0  0  0  0  0  0  0  0
   41.6130   38.6530   23.9660 O   0  0  0  0  0  0  0  0  0  0  0  0
   38.1490   35.1100   29.4470 C   0  0  0  0  0  0  0  0  0  0  0  0
   35.5500   34.3080   28.7390 C   0  0  0  0  0  0  0  0  0  0  0  0
   39.6080   36.7190   25.3430 C   0  0  0  0  0  0  0  0  0  0  0  0
   38.2850   32.2270   33.3950 C   0  0  0  0  0  0  0  0  0  0  0  0
   39.9760   36.8330   27.5040 O   0  0  0  0  0  0  0  0  0  0  0  0
   36.3080   35.1400   27.9410 C   0  0  0  0  0  0  0  0  0  0  0  0
   39.3140   34.5550   26.2960 C   0  0  0  0  0  0  0  0  0  0  0  0
   43.8670   37.4190   24.2820 C   0  0  0  0  0  0  0  0  0  0  0  0
   40.2280   35.3150   25.4010 C   0  0  0  0  0  0  0  0  0  0  0  0
   42.5640   37.1540   25.0480 C   0  0  0  0  0  0  0  0  0  0  0  0
   36.1870   33.7070   29.9050 C   0  0  0  0  0  0  0  0  0  0  0  0
   37.7810   33.4560   34.1570 C   0  0  0  0  0  0  0  0  0  0  0  0
   37.6530   35.2890   28.1430 C   0  0  0  0  0  0  0  0  0  0  0  0
   41.4440   37.3410   24.0380 C   0  0  0  0  0  0  0  0  0  0  0  0
   37.4900   34.4520   31.8150 N   0  0  0  0  0  0  0  0  0  0  0  0
   37.0370   34.4240   33.2000 C   0  0  0  0  0  0  0  0  0  0  0  0
   37.7580   32.6400   36.3400 O   0  0  0  0  0  0  0  0  0  0  0  0
  1  8  2  0
  3  6  1  0
  3 14  1  0
  4 24  1  0
  5 26  1  0
  6 22  1  0
  8 23  1  0
 10  4  1  0
 11 20  1  0
 12  8  1  0
 12 18  1  0
 12  3  1  0
 13 21  1  0
 15 22  1  0
 15 11  2  0
 16  6  1  0
 17 19  1  0
 18  2  1  0
 18 16  1  0
 20  4  1  0
 21  7  1  0
 21  5  1  0
 22 10  2  0
 23  9  1  0
 23 19  1  0
 24 25  1  0
 25 21  1  0
M  END
$$$$

     RDKit          3D

 16 17  0  0  0  0  0  0  0  0999 V2000
   36.1230   35.9990   28.6860 C   0  0  0  0  0  0  0  0  0  0  0  0
   37.7490   34.4020   27.5040 C   0  0  0  0  0  0  0  0  0  0  0  0
   39.2780   38.0610   25.7920 C   0  0  0  0  0  0  0  0  0  0  0  0
   39.7130   38.8340   24.6880 O   0  0  0  0  0  0  0  0  0  0  0  0
   38.8890   36.6100   26.0160 C   0  0  0  0  0  0  0  0  0  0  0  0
   38.6810   33.6750   26.7080 O   0  0  0  0  0  0  0  0  0  0  0  0
   36.0620   34.7510   29.0290 C   0  0  0  0  0  0  0  0  0  0  0  0
   38.5550   38.9670   26.6180 O   0  0  0  0  0  0  0  0  0  0  0  0
   35.4950   33.6060   29.3270 C   0  0  0  0  0  0  0  0  0  0  0  0
   37.3140   32.1030   28.1340 C   0  0  0  0  0  0  0  0  0  0  0  0
   39.9510   36.1600   27.0080 O   0  0  0  0  0  0  0  0  0  0  0  0
   37.8740   33.3340   27.5100 C   0  0  0  0  0  0  0  0  0  0  0  0
   33.9750   33.8970   29.7000 C   0  0  0  0  0  0  0  0  0  0  0  0
   37.2050   35.6940   27.6310 C   0  0  0  0  0  0  0  0  0  0  0  0
   36.0380   32.2130   28.9700 C   0  0  0  0  0  0  0  0  0  0  0  0
   37.6950   36.7780   26.8740 C   0  0  0  0  0  0  0  0  0  0  0  0
  1  7  1  0
  2  6  1  0
  2 12  1  0
  2 14  1  0
  3  5  1  0
  3  8  1  0
  4  3  2  0
  5 16  1  0
  5 11  1  0
  6 12  1  0
  7  9  1  0
  9 13  1  0
 10 15  1  0
 12 10  2  0
 14  1  1  0
 15  9  1  0
 16 14  2  3
M  END
$$$$

     RDKit          3D

  9  9  0  0  0  0  0  0  0  0999 V2000
   41.1660   36.6570   23.3380 C   0  0  0  0  0  0  0  0  0  0  0  0
   41.5520   36.6680   24.8780 C   0  0  0  0  0  0  0  0  0  0  0  0
   41.1390   37.8720   24.0980 C   0  0  0  0  0  0  0  0  0  0  0  0
   42.5980   36.3290   22.8160 C   0  0  0  0  0  0  0  0  0  0  0  0
   39.6620   34.2240   25.3650 O   0  0  0  0  0  0  0  0  0  0  0  0
   39.0910   34.7400   24.1370 P   0  0  0  0  0  0  0  0  0  0  0  0
   40.2450   35.6370   23.2240 C   0  0  0  0  0  0  0  0  0  0  0  0
   38.7520   33.6010   23.2820 O   0  0  0  0  0  0  0  0  0  0  0  0
   37.6510   35.4480   24.2320 N   0  0  0  0  0  0  0  0  0  0  0  0
  1  3  1  0
  1  2  1  0
  3  2  1  0
  4  1  1  0
  6  8  2  0
  6  9  1  0
  6  5  1  0
  7  1  1  0
  7  6  1  0
M  END
$$$$

     RDKit          3D

 28 29  0  0  0  0  0  0  0  0999 V2000
   42.1310   37.6250   20.6390 C   0  0  0  0  0  0  0  0  0  0  0  0
   36.7360   30.5630   36.3880 C   0  0  0  0  0  0  0  0  0  0  0  0
   40.4790   35.0880   24.8240 C   0  0  0  0  0  0  0  0  0  0  0  0
   36.9380   31.8810   35.7100 C   0  0  0  0  0  0  0  0  0  0  0  0
   37.0160   31.9980   33.3490 C   0  0  0  0  0  0  0  0  0  0  0  0
   39.3090   33.5340   26.3320 O   0  0  0  0  0  0  0  0  0  0  0  0
   36.1190   31.5440   34.4610 C   0  0  0  0  0  0  0  0  0  0  0  0
   39.6350   34.9350   26.1480 C   0  0  0  0  0  0  0  0  0  0  0  0
   38.1360   35.0900   31.8110 C   0  0  0  0  0  0  0  0  0  0  0  0
   35.9410   30.7140   37.5610 O   0  0  0  0  0  0  0  0  0  0  0  0
   42.1950   37.5920   18.1660 O   0  0  0  0  0  0  0  0  0  0  0  0
   39.1820   37.1850   27.3170 C   0  0  0  0  0  0  0  0  0  0  0  0
   41.0450   37.6360   21.7530 C   0  0  0  0  0  0  0  0  0  0  0  0
   41.2210   36.9990   23.0670 C   0  0  0  0  0  0  0  0  0  0  0  0
   35.9730   33.5050   31.9620 C   0  0  0  0  0  0  0  0  0  0  0  0
   36.0880   30.2250   35.0610 C   0  0  0  0  0  0  0  0  0  0  0  0
   40.3400   36.4980   24.2100 C   0  0  0  0  0  0  0  0  0  0  0  0
   37.5140   34.7600   30.5960 C   0  0  0  0  0  0  0  0  0  0  0  0
   41.5190   37.4830   19.2550 C   0  0  0  0  0  0  0  0  0  0  0  0
   38.1460   35.2180   29.3410 C   0  0  0  0  0  0  0  0  0  0  0  0
   38.0340   34.2350   32.8490 C   0  0  0  0  0  0  0  0  0  0  0  0
   36.4870   33.8000   30.7180 C   0  0  0  0  0  0  0  0  0  0  0  0
   43.1130   38.6630   20.5080 N   0  0  0  0  0  0  0  0  0  0  0  0
   38.5440   35.8560   26.8110 C   0  0  0  0  0  0  0  0  0  0  0  0
   35.7210   29.1300   35.0950 O   0  0  0  0  0  0  0  0  0  0  0  0
   40.2560   38.1940   19.0850 O   0  0  0  0  0  0  0  0  0  0  0  0
   37.6940   35.1830   27.9410 C   0  0  0  0  0  0  0  0  0  0  0  0
   36.8270   33.4570   33.1240 C   0  0  0  0  0  0  0  0  0  0  0  0
  1 23  1  0
  1 13  1  0
  2 10  1  0
  3  8  1  0
  4  2  1  0
  7  5  1  0
  7 16  1  0
  7  4  1  0
  8  6  1  0
  8 24  1  0
  9 21  1  0
 11 19  2  0
 13 14  2  3
 14 17  1  0
 15 28  1  0
 16 25  2  0
 16  2  1  0
 17  3  1  0
 18 22  2  0
 18  9  1  0
 19  1  1  0
 20 18  1  0
 21 28  1  0
 22 15  1  0
 24 12  1  0
 24 27  1  0
 26 19  1  0
 27 20  2  3
 28  5  1  0
M  END
$$$$

     RDKit          3D

 11 11  0  0  0  0  0  0  0  0999 V2000
   40.2970   34.7780   22.7710 C   0  0  0  0  0  0  0  0  0  0  0  0
   37.5340   35.0450   27.9970 N   0  0  0  0  0  0  0  0  0  0  0  0
   38.8740   34.7040   25.1520 C   0  0  0  0  0  0  0  0  0  0  0  0
   40.6970   36.8800   22.8810 C   0  0  0  0  0  0  0  0  0  0  0  0
   40.9260   35.7930   22.1240 N   0  0  0  0  0  0  0  0  0  0  0  0
   39.2720   35.0380   26.3980 C   0  0  0  0  0  0  0  0  0  0  0  0
   36.8920   36.2770   27.5470 C   0  0  0  0  0  0  0  0  0  0  0  0
   40.2950   36.2710   23.9910 C   0  0  0  0  0  0  0  0  0  0  0  0
   38.9710   35.1430   27.7710 C   0  0  0  0  0  0  0  0  0  0  0  0
   39.8780   35.0990   23.9890 C   0  0  0  0  0  0  0  0  0  0  0  0
   36.6750   33.9980   28.3900 C   0  0  0  0  0  0  0  0  0  0  0  0
  1 10  1  0
  2 11  1  0
  3  6  2  3
  4  8  1  0
  5  1  1  0
  5  4  1  0
  6  9  1  0
  7  2  1  0
  9  2  1  0
 10  8  1  0
 10  3  1  0
M  END
$$$$

     RDKit          3D

 12 13  0  0  0  0  0  0  0  0999 V2000
   37.9050   36.1610   25.0010 N   0  0  0  0  0  0  0  0  0  0  0  0
   37.6960   34.1180   27.8550 C   0  0  0  0  0  0  0  0  0  0  0  0
   39.4100   34.2970   23.0330 N   0  0  0  0  0  0  0  0  0  0  0  0
   40.8680   35.5420   24.1830 O   0  0  0  0  0  0  0  0  0  0  0  0
   37.3170   33.3670   29.3290 S   0  0  0  0  0  0  0  0  0  0  0  0
   38.6430   34.9520   25.2510 C   0  0  0  0  0  0  0  0  0  0  0  0
   35.8580   33.8740   29.6860 O   0  0  0  0  0  0  0  0  0  0  0  0
   38.6730   33.4380   27.1280 C   0  0  0  0  0  0  0  0  0  0  0  0
   37.1550   35.2800   27.3170 C   0  0  0  0  0  0  0  0  0  0  0  0
   37.5330   35.6460   26.0500 C   0  0  0  0  0  0  0  0  0  0  0  0
   39.8980   34.8960   24.0600 C   0  0  0  0  0  0  0  0  0  0  0  0
   38.9800   33.7180   26.0260 C   0  0  0  0  0  0  0  0  0  0  0  0
  1  6  1  0
  1 10  1  0
  2  5  1  0
  3 11  1  0
  5  7  2  0
  6 11  1  0
  6 12  1  0
  6 10  1  0
  8  2  1  0
  9  2  2  0
 10  9  1  0
 11  4  2  0
 12  8  2  0
M  END
$$$$

     RDKit          3D

 15 14  0  0  0  0  0  0  0  0999 V2000
   37.1690   34.0700   29.0160 C   0  0  0  0  0  0  0  0  0  0  0  0
   39.3820   35.2320   25.3750 C   0  0  0  0  0  0  0  0  0  0  0  0
   33.6040   33.5150   30.2060 C   0  0  0  0  0  0  0  0  0  0  0  0
   40.8180   34.6600   25.2400 C   0  0  0  0  0  0  0  0  0  0  0  0
   38.7530   35.5630   27.8010 C   0  0  0  0  0  0  0  0  0  0  0  0
   39.9840   37.0000   23.7110 O   0  0  0  0  0  0  0  0  0  0  0  0
   35.8040   34.3120   29.6240 C   0  0  0  0  0  0  0  0  0  0  0  0
   35.1440   33.2030   30.4430 C   0  0  0  0  0  0  0  0  0  0  0  0
   35.4140   35.5400   29.7770 O   0  0  0  0  0  0  0  0  0  0  0  0
   38.4700   35.1450   23.0290 C   0  0  0  0  0  0  0  0  0  0  0  0
   33.2530   31.8000   32.0780 C   0  0  0  0  0  0  0  0  0  0  0  0
   39.2610   35.9760   26.5560 O   0  0  0  0  0  0  0  0  0  0  0  0
   32.5810   32.7360   31.0450 C   0  0  0  0  0  0  0  0  0  0  0  0
   37.4790   34.8280   27.7430 C   0  0  0  0  0  0  0  0  0  0  0  0
   38.9650   36.0200   24.1230 C   0  0  0  0  0  0  0  0  0  0  0  0
  1  7  1  0
  2  4  1  0
  2 12  1  0
  3  8  1  0
  3 13  1  0
  6 15  1  0
  7  9  1  0
  7  8  1  0
 12  5  1  0
 13 11  1  0
 14  5  1  0
 14  1  1  0
 15 10  1  0
 15  2  1  0
M  END
$$$$
