
     RDKit          3D

 23 23  0  0  0  0  0  0  0  0999 V2000
   37.0000   37.6220   31.1080 S   0  0  0  0  0  0  0  0  0  0  0  0
   32.8490   32.8630   32.1360 C   0  0  0  0  0  0  0  0  0  0  0  0
   31.0940   31.9220   33.5050 O   0  0  0  0  0  0  0  0  0  0  0  0
   33.5620   34.0150   32.8490 C   0  0  0  0  0  0  0  0  0  0  0  0
   44.3390   39.1910   30.5850 C   0  0  0  0  0  0  0  0  0  0  0  0
   40.9060   36.6620   28.9780 N   0  0  0  0  0  0  0  0  0  0  0  0
   30.9380   33.9310   33.0010 O   0  0  0  0  0  0  0  0  0  0  0  0
   43.2860   38.4690   30.9090 N   0  0  0  0  0  0  0  0  0  0  0  0
   31.5600   32.8310   32.8130 C   0  0  0  0  0  0  0  0  0  0  0  0
   33.8180   35.1180   31.9080 C   0  0  0  0  0  0  0  0  0  0  0  0
   36.2360   35.5140   32.4220 C   0  0  0  0  0  0  0  0  0  0  0  0
   42.4730   38.0390   29.8950 N   0  0  0  0  0  0  0  0  0  0  0  0
   43.8130   40.3580   29.6200 C   0  0  0  0  0  0  0  0  0  0  0  0
   45.4240   39.8570   31.1160 C   0  0  0  0  0  0  0  0  0  0  0  0
   34.9990   34.4920   32.4580 C   0  0  0  0  0  0  0  0  0  0  0  0
   41.3870   37.2940   30.0130 C   0  0  0  0  0  0  0  0  0  0  0  0
   40.5720   37.4640   31.1860 C   0  0  0  0  0  0  0  0  0  0  0  0
   41.1570   38.1750   32.5620 S   0  0  0  0  0  0  0  0  0  0  0  0
   35.6240   36.8400   31.8090 C   0  0  0  0  0  0  0  0  0  0  0  0
   38.3100   36.5880   31.3890 C   0  0  0  0  0  0  0  0  0  0  0  0
   35.6410   33.2450   31.9790 N   0  0  0  0  0  0  0  0  0  0  0  0
   39.4380   37.0620   31.1400 C   0  0  0  0  0  0  0  0  0  0  0  0
   45.2100   39.9760   32.6710 C   0  0  0  0  0  0  0  0  0  0  0  0
  1 20  1  0
  1 19  1  0
  2  9  1  0
  4  2  1  0
  5 13  1  0
  5  8  1  0
  5 14  1  0
  6 16  2  0
  9  7  2  0
  9  3  1  0
 10 15  1  0
 10  4  1  0
 11 15  1  0
 12 16  1  0
 12  8  2  3
 14 23  1  0
 15 21  1  0
 15  4  1  0
 16 17  1  0
 17 18  1  0
 19 11  1  0
 22 17  2  0
 22 20  2  0
M  END
$$$$

     RDKit          3D

 14 14  0  0  0  0  0  0  0  0999 V2000
   42.7930   37.4570   29.2340 C   0  0  0  0  0  0  0  0  0  0  0  0
   38.2430   38.0900   30.9060 C   0  0  0  0  0  0  0  0  0  0  0  0
   39.0590   38.2290   31.9410 O   0  0  0  0  0  0  0  0  0  0  0  0
   40.4480   39.6780   30.4770 C   0  0  0  0  0  0  0  0  0  0  0  0
   39.0240   38.1920   29.7150 O   0  0  0  0  0  0  0  0  0  0  0  0
   36.9470   37.8030   30.5470 C   0  0  0  0  0  0  0  0  0  0  0  0
   36.2000   38.0720   29.7720 O   0  0  0  0  0  0  0  0  0  0  0  0
   41.7280   37.3980   30.4120 C   0  0  0  0  0  0  0  0  0  0  0  0
   39.7010   39.5020   31.7930 C   0  0  0  0  0  0  0  0  0  0  0  0
   42.9370   35.4290   30.8930 O   0  0  0  0  0  0  0  0  0  0  0  0
   40.6640   40.5200   29.3630 O   0  0  0  0  0  0  0  0  0  0  0  0
   40.6100   35.2550   30.6380 O   0  0  0  0  0  0  0  0  0  0  0  0
   41.7400   35.9350   30.7870 C   0  0  0  0  0  0  0  0  0  0  0  0
   40.4720   38.2240   30.0530 C   0  0  0  0  0  0  0  0  0  0  0  0
  2  6  1  0
  2  3  1  0
  4 11  1  0
  4  9  1  0
  5 14  1  0
  5  2  1  0
  7  6  2  0
  8  1  1  0
  8 13  1  0
  9  3  1  0
 12 13  2  0
 13 10  1  0
 14  8  1  0
 14  4  1  0
M  END
$$$$

     RDKit          3D

 17 19  0  0  0  0  0  0  0  0999 V2000
   38.5740   31.4640   34.5200 O   0  0  0  0  0  0  0  0  0  0  0  0
   37.2270   31.8990   34.3010 C   0  0  0  0  0  0  0  0  0  0  0  0
   39.9420   34.5900   32.7020 C   0  0  0  0  0  0  0  0  0  0  0  0
   39.8400   36.7670   33.4930 C   0  0  0  0  0  0  0  0  0  0  0  0
   43.0200   38.2550   31.1230 C   0  0  0  0  0  0  0  0  0  0  0  0
   42.3990   39.0420   32.0880 C   0  0  0  0  0  0  0  0  0  0  0  0
   39.4670   35.5960   33.5620 C   0  0  0  0  0  0  0  0  0  0  0  0
   41.3750   36.4180   31.6600 C   0  0  0  0  0  0  0  0  0  0  0  0
   37.5180   34.3100   34.2200 C   0  0  0  0  0  0  0  0  0  0  0  0
   36.9310   33.1940   35.0310 C   0  0  0  0  0  0  0  0  0  0  0  0
   40.8440   35.0070   31.5200 C   0  0  0  0  0  0  0  0  0  0  0  0
   41.4330   38.5180   32.9290 C   0  0  0  0  0  0  0  0  0  0  0  0
   40.8920   37.2310   32.6630 C   0  0  0  0  0  0  0  0  0  0  0  0
   42.9780   40.9400   32.2800 Br  0  0  0  0  0  0  0  0  0  0  0  0
   39.0550   34.2160   34.0460 C   0  0  0  0  0  0  0  0  0  0  0  0
   36.3340   30.8180   34.8940 C   0  0  0  0  0  0  0  0  0  0  0  0
   42.3860   36.9640   30.7390 C   0  0  0  0  0  0  0  0  0  0  0  0
  2  1  1  0
  2 16  1  0
  2 10  1  0
  3  7  1  0
  3 15  1  0
  4  7  2  0
  5  6  1  0
  6 14  1  0
  6 12  2  0
  7 15  1  0
  8 13  2  0
  9 10  1  0
 11  8  1  0
 11  3  2  0
 13 12  1  0
 13  4  1  0
 15  9  1  0
 17  5  2  0
 17  8  1  0
M  END
$$$$

     RDKit          3D

  9 10  0  0  0  0  0  0  0  0999 V2000
   42.0920   35.4290   30.6070 O   0  0  0  0  0  0  0  0  0  0  0  0
   40.1410   37.1940   31.5670 C   0  0  0  0  0  0  0  0  0  0  0  0
   39.0340   36.8280   32.5860 C   0  0  0  0  0  0  0  0  0  0  0  0
   36.9530   36.8930   31.2560 O   0  0  0  0  0  0  0  0  0  0  0  0
   37.5990   36.2580   32.3650 C   0  0  0  0  0  0  0  0  0  0  0  0
   41.0720   37.5880   30.4940 C   0  0  0  0  0  0  0  0  0  0  0  0
   39.6340   37.7610   30.4850 O   0  0  0  0  0  0  0  0  0  0  0  0
   40.0860   35.9950   32.0770 O   0  0  0  0  0  0  0  0  0  0  0  0
   42.4110   36.7460   30.3700 C   0  0  0  0  0  0  0  0  0  0  0  0
  2  7  1  0
  2  8  1  0
  2  3  1  0
  3  5  1  0
  4  5  1  0
  6  9  1  0
  6  2  1  0
  7  6  1  0
  8  3  1  0
  9  1  1  0
M  END
$$$$

     RDKit          3D

 22 24  0  0  0  0  0  0  0  0999 V2000
   42.0140   37.9480   31.9860 C   0  0  0  0  0  0  0  0  0  0  0  0
   42.4780   39.2290   31.8410 C   0  0  0  0  0  0  0  0  0  0  0  0
   37.6610   34.3990   33.9740 C   0  0  0  0  0  0  0  0  0  0  0  0
   40.9630   37.3340   32.8250 N   0  0  0  0  0  0  0  0  0  0  0  0
   36.2790   34.9050   34.0880 C   0  0  0  0  0  0  0  0  0  0  0  0
   33.4790   32.8220   33.4650 C   0  0  0  0  0  0  0  0  0  0  0  0
   43.6730   40.7630   30.5180 O   0  0  0  0  0  0  0  0  0  0  0  0
   42.2490   37.1020   30.9210 C   0  0  0  0  0  0  0  0  0  0  0  0
   43.3770   39.6050   30.7960 C   0  0  0  0  0  0  0  0  0  0  0  0
   31.6350   31.3890   32.5160 O   0  0  0  0  0  0  0  0  0  0  0  0
   38.5200   34.8730   32.9120 N   0  0  0  0  0  0  0  0  0  0  0  0
   39.8570   35.0270   32.9370 C   0  0  0  0  0  0  0  0  0  0  0  0
   33.7000   32.7320   31.8940 C   0  0  0  0  0  0  0  0  0  0  0  0
   32.2560   31.9450   33.4820 C   0  0  0  0  0  0  0  0  0  0  0  0
   40.7910   36.0500   32.3880 C   0  0  0  0  0  0  0  0  0  0  0  0
   34.8680   33.1800   33.6260 C   0  0  0  0  0  0  0  0  0  0  0  0
   35.5670   34.1870   32.9670 C   0  0  0  0  0  0  0  0  0  0  0  0
   34.3670   32.7290   34.5590 C   0  0  0  0  0  0  0  0  0  0  0  0
   32.4730   31.0270   34.4170 O   0  0  0  0  0  0  0  0  0  0  0  0
   44.0120   38.5530   30.2780 N   0  0  0  0  0  0  0  0  0  0  0  0
   41.5720   35.8590   31.2080 C   0  0  0  0  0  0  0  0  0  0  0  0
   43.5100   37.2600   30.2960 N   0  0  0  0  0  0  0  0  0  0  0  0
  1  4  1  0
  2  1  1  0
  3  5  1  0
  6 13  1  0
  6 14  1  0
  6 16  1  0
  6 18  1  0
  7  9  2  0
  8 21  1  0
  8  1  2  0
  9  2  1  0
 10 14  1  0
 11 12  1  0
 11  3  1  0
 14 19  1  0
 15  4  1  0
 15 12  1  0
 16 17  1  0
 16 18  1  0
 17  5  1  0
 20 22  2  0
 20  9  1  0
 21 15  2  0
 22  8  1  0
M  END
$$$$

     RDKit          3D

  8  7  0  0  0  0  0  0  0  0999 V2000
   41.3180   37.7090   30.9350 O   0  0  0  0  0  0  0  0  0  0  0  0
   41.6020   38.3860   28.1910 O   0  0  0  0  0  0  0  0  0  0  0  0
   41.4960   40.0520   30.8380 C   0  0  0  0  0  0  0  0  0  0  0  0
   43.6100   37.4040   29.0540 O   0  0  0  0  0  0  0  0  0  0  0  0
   40.6940   40.5670   30.0300 C   0  0  0  0  0  0  0  0  0  0  0  0
   42.1880   38.7440   30.5470 C   0  0  0  0  0  0  0  0  0  0  0  0
   42.6500   38.4420   29.1200 C   0  0  0  0  0  0  0  0  0  0  0  0
   41.6700   40.4760   32.2650 C   0  0  0  0  0  0  0  0  0  0  0  0
  2  7  1  0
  3  8  1  0
  4  7  1  0
  5  3  2  0
  6  3  1  0
  6  1  1  0
  7  6  1  0
M  END
$$$$

     RDKit          3D

 11 10  0  0  0  0  0  0  0  0999 V2000
   40.9780   39.6930   30.5810 C   0  0  0  0  0  0  0  0  0  0  0  0
   41.9470   37.0710   28.1000 C   0  0  0  0  0  0  0  0  0  0  0  0
   41.4900   38.4870   30.2380 N   0  0  0  0  0  0  0  0  0  0  0  0
   43.0500   40.1760   26.0060 C   0  0  0  0  0  0  0  0  0  0  0  0
   42.4610   39.3250   32.4290 O   0  0  0  0  0  0  0  0  0  0  0  0
   41.6060   38.3140   28.9960 C   0  0  0  0  0  0  0  0  0  0  0  0
   40.5810   40.2820   26.2740 C   0  0  0  0  0  0  0  0  0  0  0  0
   41.6920   40.3430   31.8260 C   0  0  0  0  0  0  0  0  0  0  0  0
   42.1530   39.6450   28.2620 C   0  0  0  0  0  0  0  0  0  0  0  0
   40.1230   40.3610   29.9690 O   0  0  0  0  0  0  0  0  0  0  0  0
   41.8670   39.7050   26.8240 C   0  0  0  0  0  0  0  0  0  0  0  0
  1  8  1  0
  3  1  1  0
  4 11  1  0
  6  2  1  0
  6  3  1  0
  7 11  1  0
  8  5  1  0
  9  6  1  0
 10  1  2  0
 11  9  1  0
M  END
$$$$

     RDKit          3D

  6  6  0  0  0  0  0  0  0  0999 V2000
   41.3940   38.2200   30.8170 N   0  0  0  0  0  0  0  0  0  0  0  0
   42.3060   39.2500   30.6870 C   0  0  0  0  0  0  0  0  0  0  0  0
   43.3560   39.7750   31.5010 O   0  0  0  0  0  0  0  0  0  0  0  0
   40.9740   37.6050   29.5630 C   0  0  0  0  0  0  0  0  0  0  0  0
   40.1880   38.8290   31.2410 O   0  0  0  0  0  0  0  0  0  0  0  0
   42.7880   37.7940   30.6570 C   0  0  0  0  0  0  0  0  0  0  0  0
  1  5  1  0
  2  1  1  0
  2  3  1  0
  4  1  1  0
  6  2  1  0
  6  1  1  0
M  END
$$$$

     RDKit          3D

 23 25  0  0  0  0  0  0  0  0999 V2000
   45.6660   39.0230   32.3330 C   0  0  0  0  0  0  0  0  0  0  0  0
   42.3820   39.1100   31.6220 C   0  0  0  0  0  0  0  0  0  0  0  0
   36.9710   34.3860   32.6120 C   0  0  0  0  0  0  0  0  0  0  0  0
   43.4280   38.3000   31.2980 C   0  0  0  0  0  0  0  0  0  0  0  0
   34.4690   34.2140   34.2160 C   0  0  0  0  0  0  0  0  0  0  0  0
   36.3750   34.2210   33.0690 C   0  0  0  0  0  0  0  0  0  0  0  0
   38.1030   35.1820   32.0980 C   0  0  0  0  0  0  0  0  0  0  0  0
   38.2010   36.7200   31.6580 S   0  0  0  0  0  0  0  0  0  0  0  0
   31.3770   33.8470   34.1870 C   0  0  0  0  0  0  0  0  0  0  0  0
   44.7220   38.3070   31.7730 N   0  0  0  0  0  0  0  0  0  0  0  0
   42.0050   36.8570   30.0440 C   0  0  0  0  0  0  0  0  0  0  0  0
   41.2030   38.7520   31.0890 N   0  0  0  0  0  0  0  0  0  0  0  0
   30.1150   34.6240   33.8740 N   0  0  0  0  0  0  0  0  0  0  0  0
   42.5490   40.2960   32.5070 C   0  0  0  0  0  0  0  0  0  0  0  0
   40.1120   35.0420   31.1500 C   0  0  0  0  0  0  0  0  0  0  0  0
   39.9550   36.4550   31.1550 C   0  0  0  0  0  0  0  0  0  0  0  0
   32.3730   34.2390   33.0540 C   0  0  0  0  0  0  0  0  0  0  0  0
   33.6280   33.3180   33.6320 C   0  0  0  0  0  0  0  0  0  0  0  0
   39.0970   34.4400   31.7150 N   0  0  0  0  0  0  0  0  0  0  0  0
   43.2670   37.2500   30.3360 C   0  0  0  0  0  0  0  0  0  0  0  0
   41.0410   37.4310   30.8120 C   0  0  0  0  0  0  0  0  0  0  0  0
   35.4460   33.3340   33.8010 N   0  0  0  0  0  0  0  0  0  0  0  0
   35.6600   35.0240   32.1900 C   0  0  0  0  0  0  0  0  0  0  0  0
  2 14  1  0
  3  6  2  0
  4  2  2  0
  4 10  1  0
  6 22  1  0
  7  3  2  0
  8  7  1  0
 10  1  2  0
 11 20  1  0
 12  2  1  0
 13  9  1  0
 15 19  1  0
 16 15  1  0
 16  8  1  0
 17  9  1  0
 18 17  1  0
 18 22  1  0
 18  5  1  0
 19  7  1  0
 20  4  1  0
 21 11  1  0
 21 12  1  0
 21 16  1  0
 22  5  1  0
 23  6  1  0
M  END
$$$$

     RDKit          3D

  8  7  0  0  0  0  0  0  0  0999 V2000
   41.3090   40.9260   29.9320 C   0  0  0  0  0  0  0  0  0  0  0  0
   43.3260   38.5500   32.4870 O   0  0  0  0  0  0  0  0  0  0  0  0
   41.7750   38.6810   30.6570 C   0  0  0  0  0  0  0  0  0  0  0  0
   41.4450   37.3420   29.9530 C   0  0  0  0  0  0  0  0  0  0  0  0
   41.3140   36.2650   30.9090 N   0  0  0  0  0  0  0  0  0  0  0  0
   43.0270   38.4770   31.4700 C   0  0  0  0  0  0  0  0  0  0  0  0
   40.2540   37.7140   29.3510 O   0  0  0  0  0  0  0  0  0  0  0  0
   41.8800   39.6220   29.5890 O   0  0  0  0  0  0  0  0  0  0  0  0
  3  6  1  0
  4  7  1  0
  4  3  1  0
  4  5  1  0
  6  2  2  0
  8  1  1  0
  8  3  1  0
M  END
$$$$

     RDKit          3D

 24 24  0  0  0  0  0  0  0  0999 V2000
   36.7410   29.7350   33.2750 C   0  0  0  0  0  0  0  0  0  0  0  0
   36.9540   31.2290   33.2440 C   0  0  0  0  0  0  0  0  0  0  0  0
   40.9980   43.1690   29.9370 C   0  0  0  0  0  0  0  0  0  0  0  0
   41.5610   38.7940   32.5600 C   0  0  0  0  0  0  0  0  0  0  0  0
   42.3070   40.4730   34.4760 N   0  0  0  0  0  0  0  0  0  0  0  0
   41.3110   38.6080   31.2240 N   0  0  0  0  0  0  0  0  0  0  0  0
   42.5270   41.0180   31.9290 C   0  0  0  0  0  0  0  0  0  0  0  0
   39.0020   32.6850   32.7030 C   0  0  0  0  0  0  0  0  0  0  0  0
   33.1790   29.1580   34.6360 C   0  0  0  0  0  0  0  0  0  0  0  0
   41.1040   37.5890   33.2180 N   0  0  0  0  0  0  0  0  0  0  0  0
   41.8270   40.9330   30.7690 C   0  0  0  0  0  0  0  0  0  0  0  0
   31.6250   30.0400   34.3770 S   0  0  0  0  0  0  0  0  0  0  0  0
   40.2820   36.4930   32.5850 C   0  0  0  0  0  0  0  0  0  0  0  0
   40.1150   34.9050   32.2410 C   0  0  0  0  0  0  0  0  0  0  0  0
   42.0640   40.1750   33.0420 C   0  0  0  0  0  0  0  0  0  0  0  0
   39.5020   33.5820   31.5530 C   0  0  0  0  0  0  0  0  0  0  0  0
   35.4930   28.9730   33.7220 C   0  0  0  0  0  0  0  0  0  0  0  0
   34.4140   29.9480   34.2470 C   0  0  0  0  0  0  0  0  0  0  0  0
   41.6920   41.8420   29.5260 C   0  0  0  0  0  0  0  0  0  0  0  0
   42.7040   44.2900   28.4970 C   0  0  0  0  0  0  0  0  0  0  0  0
   41.5090   39.6730   30.5780 C   0  0  0  0  0  0  0  0  0  0  0  0
   41.3170   44.4390   29.1620 C   0  0  0  0  0  0  0  0  0  0  0  0
   38.0710   31.5460   32.2340 C   0  0  0  0  0  0  0  0  0  0  0  0
   40.2490   44.1860   27.8980 C   0  0  0  0  0  0  0  0  0  0  0  0
  1 17  1  0
  2  1  1  0
  4 15  1  0
  4 10  1  0
  6  4  2  0
  7 15  1  0
 11 19  1  0
 11  7  1  0
 12  9  1  0
 13 10  1  0
 14 13  1  0
 15  5  1  0
 16 14  1  0
 16  8  1  0
 17 18  1  0
 18  9  1  0
 19  3  1  0
 20 22  1  0
 21 11  1  0
 21  6  1  0
 22  3  1  0
 23  8  1  0
 23  2  1  0
 24 22  1  0
M  END
$$$$

     RDKit          3D

 30 32  0  0  0  0  0  0  0  0999 V2000
   30.6960   32.4490   30.2650 C   0  0  0  0  0  0  0  0  0  0  0  0
   38.1250   34.7960   31.9240 C   0  0  0  0  0  0  0  0  0  0  0  0
   29.7790   30.2510   33.1530 C   0  0  0  0  0  0  0  0  0  0  0  0
   37.3250   33.9900   32.4840 O   0  0  0  0  0  0  0  0  0  0  0  0
   32.0240   33.1280   30.3970 C   0  0  0  0  0  0  0  0  0  0  0  0
   32.3270   29.8190   31.0890 C   0  0  0  0  0  0  0  0  0  0  0  0
   41.6560   37.5540   30.8510 C   0  0  0  0  0  0  0  0  0  0  0  0
   34.6310   29.7380   31.8960 C   0  0  0  0  0  0  0  0  0  0  0  0
   41.1860   38.8500   31.5110 C   0  0  0  0  0  0  0  0  0  0  0  0
   40.7000   36.4020   31.0770 C   0  0  0  0  0  0  0  0  0  0  0  0
   35.1180   33.7700   31.6200 C   0  0  0  0  0  0  0  0  0  0  0  0
   38.6520   37.5650   31.7080 O   0  0  0  0  0  0  0  0  0  0  0  0
   41.9310   40.0320   31.1400 C   0  0  0  0  0  0  0  0  0  0  0  0
   35.6610   30.4210   32.5690 C   0  0  0  0  0  0  0  0  0  0  0  0
   41.7370   37.8460   29.3510 C   0  0  0  0  0  0  0  0  0  0  0  0
   38.7190   35.4080   31.3900 N   0  0  0  0  0  0  0  0  0  0  0  0
   43.2080   38.1140   28.9940 C   0  0  0  0  0  0  0  0  0  0  0  0
   34.9190   32.3420   31.9310 C   0  0  0  0  0  0  0  0  0  0  0  0
   32.2330   28.8470   33.0450 O   0  0  0  0  0  0  0  0  0  0  0  0
   35.9600   31.6130   32.3870 C   0  0  0  0  0  0  0  0  0  0  0  0
   30.7250   30.6140   32.0570 C   0  0  0  0  0  0  0  0  0  0  0  0
   39.3630   36.6330   31.4360 C   0  0  0  0  0  0  0  0  0  0  0  0
   33.3560   30.4600   31.8580 C   0  0  0  0  0  0  0  0  0  0  0  0
   36.7690   29.5250   32.7620 F   0  0  0  0  0  0  0  0  0  0  0  0
   32.0380   29.9430   32.1730 C   0  0  0  0  0  0  0  0  0  0  0  0
   33.7770   31.8140   31.9930 N   0  0  0  0  0  0  0  0  0  0  0  0
   30.1740   31.1570   30.8670 C   0  0  0  0  0  0  0  0  0  0  0  0
   43.8830   39.3290   29.6500 C   0  0  0  0  0  0  0  0  0  0  0  0
   43.1000   40.2440   30.3870 C   0  0  0  0  0  0  0  0  0  0  0  0
   36.0360   34.4450   32.6280 C   0  0  0  0  0  0  0  0  0  0  0  0
  1  5  1  0
  1 27  1  0
  2  4  1  0
  4 30  1  0
  6 25  1  0
  7 10  1  0
  7  9  1  0
  8 14  1  0
 10 22  1  0
 11 30  1  0
 13  9  1  0
 14 24  1  0
 15  7  1  0
 16 22  1  0
 16  2  1  0
 17 15  1  0
 17 28  2  0
 18 11  1  0
 18 26  1  0
 18 20  1  0
 20 14  1  0
 21 25  1  0
 21  3  1  0
 22 12  2  0
 23  6  1  0
 23  8  1  0
 23 26  1  0
 23 25  1  0
 25 19  1  0
 27 21  1  0
 28 29  1  0
 29 13  2  0
M  END
$$$$

     RDKit          3D

 15 16  0  0  0  0  0  0  0  0999 V2000
   41.0470   35.9520   31.1220 C   0  0  0  0  0  0  0  0  0  0  0  0
   37.0570   36.8510   31.3700 C   0  0  0  0  0  0  0  0  0  0  0  0
   41.7820   39.4190   32.2570 C   0  0  0  0  0  0  0  0  0  0  0  0
   36.5480   34.5760   31.9670 C   0  0  0  0  0  0  0  0  0  0  0  0
   38.8680   35.1740   31.5570 C   0  0  0  0  0  0  0  0  0  0  0  0
   38.4000   36.4620   31.3420 C   0  0  0  0  0  0  0  0  0  0  0  0
   40.5550   37.0760   31.5480 C   0  0  0  0  0  0  0  0  0  0  0  0
   37.9170   34.2250   31.8980 C   0  0  0  0  0  0  0  0  0  0  0  0
   41.3720   38.5620   30.0160 O   0  0  0  0  0  0  0  0  0  0  0  0
   42.7010   38.2460   31.8500 C   0  0  0  0  0  0  0  0  0  0  0  0
   41.9300   35.7540   30.3240 O   0  0  0  0  0  0  0  0  0  0  0  0
   41.2780   38.3600   31.4240 C   0  0  0  0  0  0  0  0  0  0  0  0
   40.1870   34.8030   31.4520 N   0  0  0  0  0  0  0  0  0  0  0  0
   36.0790   35.8860   31.7060 C   0  0  0  0  0  0  0  0  0  0  0  0
   36.6430   38.4970   30.9570 Cl  0  0  0  0  0  0  0  0  0  0  0  0
  1 13  1  0
  1  7  1  0
  2 14  1  0
  5  8  2  0
  6  2  2  0
  6  5  1  0
  8  4  1  0
  9 12  1  0
 10  3  1  0
 11  1  2  0
 12  7  1  0
 12 10  1  0
 12  3  1  0
 13  5  1  0
 14  4  2  0
 15  2  1  0
M  END
$$$$

     RDKit          3D

 32 33  0  0  0  0  0  0  0  0999 V2000
   36.8980   37.9410   31.3240 O   0  0  0  0  0  0  0  0  0  0  0  0
   33.8920   26.8860   27.7280 C   0  0  0  0  0  0  0  0  0  0  0  0
   33.8420   27.9020   28.8060 N   0  0  0  0  0  0  0  0  0  0  0  0
   42.0140   39.7040   31.4440 C   0  0  0  0  0  0  0  0  0  0  0  0
   39.7310   38.7850   31.2370 C   0  0  0  0  0  0  0  0  0  0  0  0
   35.2200   28.6390   28.9300 C   0  0  0  0  0  0  0  0  0  0  0  0
   41.1070   38.6980   31.8370 C   0  0  0  0  0  0  0  0  0  0  0  0
   34.8020   29.6770   30.1790 C   0  0  0  0  0  0  0  0  0  0  0  0
   47.3200   41.3000   31.9460 C   0  0  0  0  0  0  0  0  0  0  0  0
   48.7320   41.6460   31.1500 C   0  0  0  0  0  0  0  0  0  0  0  0
   37.6890   35.9880   32.1960 O   0  0  0  0  0  0  0  0  0  0  0  0
   34.7130   31.0730   29.3830 N   0  0  0  0  0  0  0  0  0  0  0  0
   44.4960   40.7240   32.1170 N   0  0  0  0  0  0  0  0  0  0  0  0
   36.8110   35.1100   31.3910 C   0  0  0  0  0  0  0  0  0  0  0  0
   44.9580   41.0980   30.9830 C   0  0  0  0  0  0  0  0  0  0  0  0
   33.6760   33.8240   34.2590 F   0  0  0  0  0  0  0  0  0  0  0  0
   44.1230   41.3440   30.0640 O   0  0  0  0  0  0  0  0  0  0  0  0
   37.8930   37.2250   31.6030 C   0  0  0  0  0  0  0  0  0  0  0  0
   33.3920   27.7090   30.0070 C   0  0  0  0  0  0  0  0  0  0  0  0
   46.3650   41.4200   30.6030 C   0  0  0  0  0  0  0  0  0  0  0  0
   34.7900   33.1760   33.6650 C   0  0  0  0  0  0  0  0  0  0  0  0
   34.5090   32.0480   32.9350 C   0  0  0  0  0  0  0  0  0  0  0  0
   35.1600   30.1730   31.6700 C   0  0  0  0  0  0  0  0  0  0  0  0
   36.4270   32.4790   31.5170 C   0  0  0  0  0  0  0  0  0  0  0  0
   35.5210   31.5000   32.0200 C   0  0  0  0  0  0  0  0  0  0  0  0
   35.8860   33.9680   33.3820 C   0  0  0  0  0  0  0  0  0  0  0  0
   41.6930   40.4020   30.2600 O   0  0  0  0  0  0  0  0  0  0  0  0
   36.4550   33.8120   32.1150 C   0  0  0  0  0  0  0  0  0  0  0  0
   43.2340   40.0120   32.3070 C   0  0  0  0  0  0  0  0  0  0  0  0
   39.1320   37.4680   31.2970 N   0  0  0  0  0  0  0  0  0  0  0  0
   47.4260   40.7840   32.9450 C   0  0  0  0  0  0  0  0  0  0  0  0
   33.3800   29.1190   30.5240 C   0  0  0  0  0  0  0  0  0  0  0  0
  1 18  2  0
  2  3  1  0
  3  6  1  0
  3 19  1  0
  4 27  1  0
  4  7  1  0
  4 29  1  0
  5 30  1  0
  5  7  1  0
  6  8  1  0
  8 12  1  0
  8 32  1  0
  8 23  1  0
  9 31  2  0
 10  9  1  0
 13 29  2  3
 14 28  1  0
 14 11  1  0
 15 13  1  0
 17 15  2  0
 18 11  1  0
 19 32  1  0
 20 15  1  0
 20  9  1  0
 21 16  1  0
 22 21  2  0
 23 25  1  0
 24 25  2  0
 24 28  1  0
 25 22  1  0
 26 21  1  0
 28 26  2  0
 30 18  1  0
M  END
$$$$

     RDKit          3D

 11 12  0  0  0  0  0  0  0  0999 V2000
   36.5060   37.5990   31.0840 O   0  0  0  0  0  0  0  0  0  0  0  0
   37.3950   37.4780   30.6600 C   0  0  0  0  0  0  0  0  0  0  0  0
   41.3430   37.8070   30.6880 C   0  0  0  0  0  0  0  0  0  0  0  0
   43.8200   38.2150   30.6450 C   0  0  0  0  0  0  0  0  0  0  0  0
   40.1140   38.3220   30.1230 C   0  0  0  0  0  0  0  0  0  0  0  0
   42.1780   40.2150   29.8720 C   0  0  0  0  0  0  0  0  0  0  0  0
   38.7140   38.3690   30.4810 C   0  0  0  0  0  0  0  0  0  0  0  0
   40.8230   37.4140   29.2960 C   0  0  0  0  0  0  0  0  0  0  0  0
   42.4920   38.6280   30.0090 C   0  0  0  0  0  0  0  0  0  0  0  0
   44.6800   39.1520   31.3320 C   0  0  0  0  0  0  0  0  0  0  0  0
   42.1700   37.9020   28.6730 C   0  0  0  0  0  0  0  0  0  0  0  0
  2  1  2  0
  4 10  1  0
  5  7  1  0
  5  3  1  0
  6  9  1  0
  7  2  1  0
  8  5  1  0
  8  3  1  0
  9  4  1  0
  9  3  1  0
 11  8  1  0
 11  9  1  0
M  END
$$$$

     RDKit          3D

 14 14  0  0  0  0  0  0  0  0999 V2000
   38.7890   36.5160   31.8820 C   0  0  0  0  0  0  0  0  0  0  0  0
   37.5540   38.4700   31.1900 O   0  0  0  0  0  0  0  0  0  0  0  0
   40.8600   37.7250   29.9410 C   0  0  0  0  0  0  0  0  0  0  0  0
   39.4290   39.4190   29.7830 O   0  0  0  0  0  0  0  0  0  0  0  0
   41.1590   35.6010   31.5010 C   0  0  0  0  0  0  0  0  0  0  0  0
   42.0530   39.7250   28.9880 C   0  0  0  0  0  0  0  0  0  0  0  0
   42.9390   40.8610   29.1910 C   0  0  0  0  0  0  0  0  0  0  0  0
   41.5340   38.5060   28.9960 C   0  0  0  0  0  0  0  0  0  0  0  0
   39.9020   35.5430   31.9950 C   0  0  0  0  0  0  0  0  0  0  0  0
   38.6630   37.7110   31.1170 C   0  0  0  0  0  0  0  0  0  0  0  0
   41.4830   36.5800   30.4910 C   0  0  0  0  0  0  0  0  0  0  0  0
   39.6410   38.2960   30.3120 C   0  0  0  0  0  0  0  0  0  0  0  0
   42.5610   36.1440   30.1730 O   0  0  0  0  0  0  0  0  0  0  0  0
   37.8640   36.1710   32.6510 O   0  0  0  0  0  0  0  0  0  0  0  0
  1  9  1  0
  1 14  2  0
  3  8  1  0
  3 12  1  0
  3 11  1  0
  4 12  2  0
  5  9  2  0
  6  8  1  0
  6  7  1  0
 10  2  1  0
 10  1  1  0
 11  5  1  0
 12 10  1  0
 13 11  2  0
M  END
$$$$

     RDKit          3D

 11 11  0  0  0  0  0  0  0  0999 V2000
   37.4170   36.2580   32.2950 C   0  0  0  0  0  0  0  0  0  0  0  0
   38.3520   35.5800   33.0360 C   0  0  0  0  0  0  0  0  0  0  0  0
   40.1190   36.6940   31.7020 C   0  0  0  0  0  0  0  0  0  0  0  0
   39.0820   37.4940   31.0680 C   0  0  0  0  0  0  0  0  0  0  0  0
   41.8910   37.5110   29.9300 P   0  0  0  0  0  0  0  0  0  0  0  0
   42.9890   36.3920   30.4500 O   0  0  0  0  0  0  0  0  0  0  0  0
   41.8920   37.3850   28.4330 O   0  0  0  0  0  0  0  0  0  0  0  0
   41.2610   37.5260   31.4310 N   0  0  0  0  0  0  0  0  0  0  0  0
   41.6760   39.4660   29.6990 O   0  0  0  0  0  0  0  0  0  0  0  0
   39.6780   35.7260   32.7330 C   0  0  0  0  0  0  0  0  0  0  0  0
   37.7900   37.2420   31.4450 C   0  0  0  0  0  0  0  0  0  0  0  0
  1  2  1  0
  3 10  1  0
  4 11  1  0
  4  3  2  0
  5  6  1  0
  5  8  1  0
  7  5  2  0
  8  3  1  0
  9  5  1  0
 10  2  2  0
 11  1  2  0
M  END
$$$$

     RDKit          3D

 23 24  0  0  0  0  0  0  0  0999 V2000
   39.4690   38.2780   31.1830 S   0  0  0  0  0  0  0  0  0  0  0  0
   35.6050   31.6740   35.5210 C   0  0  0  0  0  0  0  0  0  0  0  0
   39.9230   36.7590   31.8150 C   0  0  0  0  0  0  0  0  0  0  0  0
   36.6870   33.8990   33.2070 N   0  0  0  0  0  0  0  0  0  0  0  0
   37.4410   35.7880   32.0610 N   0  0  0  0  0  0  0  0  0  0  0  0
   36.3490   34.9490   32.4360 C   0  0  0  0  0  0  0  0  0  0  0  0
   41.1700   36.4600   31.8490 N   0  0  0  0  0  0  0  0  0  0  0  0
   37.7910   33.7880   33.9440 O   0  0  0  0  0  0  0  0  0  0  0  0
   38.8010   35.8340   32.3550 C   0  0  0  0  0  0  0  0  0  0  0  0
   34.5320   31.4210   36.0880 O   0  0  0  0  0  0  0  0  0  0  0  0
   41.8690   37.4110   31.2370 C   0  0  0  0  0  0  0  0  0  0  0  0
   35.8120   32.7720   33.2950 C   0  0  0  0  0  0  0  0  0  0  0  0
   35.8570   32.7510   34.6960 C   0  0  0  0  0  0  0  0  0  0  0  0
   39.4230   35.0770   33.0860 O   0  0  0  0  0  0  0  0  0  0  0  0
   42.8590   39.2550   29.8070 C   0  0  0  0  0  0  0  0  0  0  0  0
   36.6360   31.0780   35.9340 N   0  0  0  0  0  0  0  0  0  0  0  0
   41.0500   38.3950   30.8620 C   0  0  0  0  0  0  0  0  0  0  0  0
   41.3860   39.5160   30.0380 C   0  0  0  0  0  0  0  0  0  0  0  0
   43.4660   37.9300   30.9570 S   0  0  0  0  0  0  0  0  0  0  0  0
   35.2910   35.0360   31.8720 O   0  0  0  0  0  0  0  0  0  0  0  0
   36.5510   30.0260   36.9380 C   0  0  0  0  0  0  0  0  0  0  0  0
   36.6390   28.5130   36.1500 S   0  0  0  0  0  0  0  0  0  0  0  0
   43.5290   40.6300   30.0630 C   0  0  0  0  0  0  0  0  0  0  0  0
  1  3  1  0
  2 16  1  0
  2 10  2  0
  3  7  2  0
  3  9  1  0
  4 12  1  0
  4  8  1  0
  5  9  1  0
  5  6  1  0
  6  4  1  0
  9 14  2  0
 11  7  1  0
 12 13  1  0
 13  2  1  0
 15 18  1  0
 15 23  1  0
 15 19  1  0
 16 21  1  0
 17  1  1  0
 17 11  2  0
 18 17  1  0
 19 11  1  0
 20  6  2  0
 22 21  1  0
M  END
$$$$

     RDKit          3D

 21 21  0  0  0  0  0  0  0  0999 V2000
   35.4630   32.3330   33.3530 C   0  0  0  0  0  0  0  0  0  0  0  0
   42.9810   41.2760   28.7510 C   0  0  0  0  0  0  0  0  0  0  0  0
   40.7250   38.0230   30.6900 C   0  0  0  0  0  0  0  0  0  0  0  0
   36.3100   34.2990   32.5590 C   0  0  0  0  0  0  0  0  0  0  0  0
   35.1650   33.4430   32.8020 C   0  0  0  0  0  0  0  0  0  0  0  0
   37.0180   36.1350   31.2670 C   0  0  0  0  0  0  0  0  0  0  0  0
   34.4980   32.0500   33.4150 N   0  0  0  0  0  0  0  0  0  0  0  0
   39.2040   36.6500   31.9190 C   0  0  0  0  0  0  0  0  0  0  0  0
   40.2380   39.0110   29.7370 N   0  0  0  0  0  0  0  0  0  0  0  0
   42.3390   39.8590   29.1010 C   0  0  0  0  0  0  0  0  0  0  0  0
   41.0080   39.7930   29.0060 C   0  0  0  0  0  0  0  0  0  0  0  0
   42.1260   37.8940   30.4830 C   0  0  0  0  0  0  0  0  0  0  0  0
   39.4860   37.5480   31.1900 N   0  0  0  0  0  0  0  0  0  0  0  0
   37.9900   36.2840   32.1780 N   0  0  0  0  0  0  0  0  0  0  0  0
   38.4650   38.3350   31.1960 N   0  0  0  0  0  0  0  0  0  0  0  0
   42.9680   38.8720   29.5820 C   0  0  0  0  0  0  0  0  0  0  0  0
   40.0140   36.0170   32.2630 O   0  0  0  0  0  0  0  0  0  0  0  0
   36.1760   34.9330   31.7150 C   0  0  0  0  0  0  0  0  0  0  0  0
   42.4100   36.7100   29.4940 O   0  0  0  0  0  0  0  0  0  0  0  0
   44.3910   38.5970   29.2120 O   0  0  0  0  0  0  0  0  0  0  0  0
   35.1140   34.5700   31.1720 N   0  0  0  0  0  0  0  0  0  0  0  0
  1  7  1  0
  3 13  1  0
  4  5  1  0
  5  1  1  0
  6 18  1  0
  6 14  1  0
  8 14  1  0
  8 17  2  0
  9  3  1  0
 10  2  1  0
 10 16  1  0
 11 10  1  0
 11  9  2  0
 12 19  1  0
 12  3  1  0
 13 15  1  0
 13  8  1  0
 16 20  1  0
 16 12  1  0
 18  4  1  0
 21 18  2  0
M  END
$$$$

     RDKit          3D

  4  3  0  0  0  0  0  0  0  0999 V2000
   40.8780   36.3720   29.0050 O   0  0  0  0  0  0  0  0  0  0  0  0
   41.6060   37.2910   29.3550 C   0  0  0  0  0  0  0  0  0  0  0  0
   42.6680   37.5200   28.6020 O   0  0  0  0  0  0  0  0  0  0  0  0
   41.4290   37.7300   30.5800 N   0  0  0  0  0  0  0  0  0  0  0  0
  1  2  1  0
  2  4  1  0
  3  2  2  0
M  END
$$$$
