
     RDKit          3D

  9  9  0  0  0  0  0  0  0  0999 V2000
   42.9500   37.1580   29.3030 C   0  0  0  0  0  0  0  0  0  0  0  0
   41.0040   35.3640   29.0790 N   0  0  0  0  0  0  0  0  0  0  0  0
   41.9680   35.3790   28.2040 N   0  0  0  0  0  0  0  0  0  0  0  0
   39.5410   37.0920   31.7730 O   0  0  0  0  0  0  0  0  0  0  0  0
   41.9600   36.9940   30.2280 C   0  0  0  0  0  0  0  0  0  0  0  0
   39.6290   36.8020   30.5870 C   0  0  0  0  0  0  0  0  0  0  0  0
   38.5740   36.7780   30.0700 O   0  0  0  0  0  0  0  0  0  0  0  0
   43.0740   36.0740   28.4630 C   0  0  0  0  0  0  0  0  0  0  0  0
   40.8190   36.3590   29.9480 C   0  0  0  0  0  0  0  0  0  0  0  0
  1  5  1  0
  2  9  1  0
  3  8  1  0
  3  2  1  0
  6  4  1  0
  7  6  2  0
  8  1  1  0
  9  5  1  0
  9  6  1  0
M  END
$$$$

     RDKit          3D

 19 20  0  0  0  0  0  0  0  0999 V2000
   41.5160   35.6240   30.3290 C   0  0  0  0  0  0  0  0  0  0  0  0
   42.3330   36.0620   27.5130 C   0  0  0  0  0  0  0  0  0  0  0  0
   36.9550   33.5810   37.2900 C   0  0  0  0  0  0  0  0  0  0  0  0
   40.8180   37.2840   31.9450 C   0  0  0  0  0  0  0  0  0  0  0  0
   37.7330   32.1740   35.4630 C   0  0  0  0  0  0  0  0  0  0  0  0
   39.7560   35.2160   32.7520 C   0  0  0  0  0  0  0  0  0  0  0  0
   41.5390   39.1650   30.7230 O   0  0  0  0  0  0  0  0  0  0  0  0
   41.1530   36.8860   29.5350 C   0  0  0  0  0  0  0  0  0  0  0  0
   38.1190   32.6050   34.0410 C   0  0  0  0  0  0  0  0  0  0  0  0
   38.6820   34.2620   35.7160 O   0  0  0  0  0  0  0  0  0  0  0  0
   41.2900   35.9410   26.4760 C   0  0  0  0  0  0  0  0  0  0  0  0
   42.1510   37.2750   28.4530 C   0  0  0  0  0  0  0  0  0  0  0  0
   43.7530   35.6680   27.4570 C   0  0  0  0  0  0  0  0  0  0  0  0
   38.1920   33.1410   36.5140 C   0  0  0  0  0  0  0  0  0  0  0  0
   38.9450   33.8060   34.4010 C   0  0  0  0  0  0  0  0  0  0  0  0
   40.8750   38.0040   30.5930 C   0  0  0  0  0  0  0  0  0  0  0  0
   39.9480   34.4280   33.6420 C   0  0  0  0  0  0  0  0  0  0  0  0
   40.4550   35.8240   31.6110 C   0  0  0  0  0  0  0  0  0  0  0  0
   43.4020   37.9480   29.0930 C   0  0  0  0  0  0  0  0  0  0  0  0
  1 18  1  0
  2 12  1  0
  5 14  1  0
  6 17  2  3
  8 12  1  0
  8  1  1  0
  8 16  1  0
  9 15  1  0
  9  5  1  0
 10 14  1  0
 11  2  1  0
 12 19  1  0
 13  2  1  0
 14  3  1  0
 15 17  1  0
 15 10  1  0
 16  7  1  0
 16  4  1  0
 18  4  1  0
 18  6  1  0
M  END
$$$$

     RDKit          3D

 15 16  0  0  0  0  0  0  0  0999 V2000
   40.7170   34.7840   31.6780 C   0  0  0  0  0  0  0  0  0  0  0  0
   39.1710   34.6410   33.5570 N   0  0  0  0  0  0  0  0  0  0  0  0
   34.8840   33.1020   36.3190 C   0  0  0  0  0  0  0  0  0  0  0  0
   36.6540   33.1460   34.5180 C   0  0  0  0  0  0  0  0  0  0  0  0
   42.1780   34.5910   32.1350 C   0  0  0  0  0  0  0  0  0  0  0  0
   35.3060   35.1870   35.0360 C   0  0  0  0  0  0  0  0  0  0  0  0
   43.6490   36.4840   32.4590 O   0  0  0  0  0  0  0  0  0  0  0  0
   36.1070   32.4790   35.6930 C   0  0  0  0  0  0  0  0  0  0  0  0
   37.8930   32.3710   33.9300 C   0  0  0  0  0  0  0  0  0  0  0  0
   39.5430   33.9570   32.3210 C   0  0  0  0  0  0  0  0  0  0  0  0
   39.2150   33.2270   33.6590 C   0  0  0  0  0  0  0  0  0  0  0  0
   42.9680   36.0350   30.3750 O   0  0  0  0  0  0  0  0  0  0  0  0
   34.3820   34.1790   35.6980 C   0  0  0  0  0  0  0  0  0  0  0  0
   42.9870   35.7250   31.5810 N   0  0  0  0  0  0  0  0  0  0  0  0
   36.5660   34.6250   34.4780 C   0  0  0  0  0  0  0  0  0  0  0  0
  1  5  1  0
  2 11  1  0
  4  9  1  0
  4  8  1  0
  6 13  1  0
  8  3  2  0
 10  1  1  0
 10  2  1  0
 10 11  1  0
 11  9  1  0
 12 14  2  0
 13  3  1  0
 14  5  1  0
 14  7  2  0
 15  4  1  0
 15  6  1  0
M  END
$$$$

     RDKit          3D

 14 13  0  0  0  0  0  0  0  0999 V2000
   41.3110   34.3850   29.4900 N   0  0  0  0  0  0  0  0  0  0  0  0
   40.4400   35.4500   30.0070 C   0  0  0  0  0  0  0  0  0  0  0  0
   42.2710   37.8340   33.3250 C   0  0  0  0  0  0  0  0  0  0  0  0
   38.7140   33.9710   29.2850 O   0  0  0  0  0  0  0  0  0  0  0  0
   42.3970   37.7770   34.4710 O   0  0  0  0  0  0  0  0  0  0  0  0
   38.4550   34.2580   31.3170 O   0  0  0  0  0  0  0  0  0  0  0  0
   41.4970   36.6290   30.0100 C   0  0  0  0  0  0  0  0  0  0  0  0
   39.1430   34.4560   30.2990 C   0  0  0  0  0  0  0  0  0  0  0  0
   41.4720   37.2770   32.2080 C   0  0  0  0  0  0  0  0  0  0  0  0
   40.2080   36.7160   32.7270 C   0  0  0  0  0  0  0  0  0  0  0  0
   39.1930   36.9570   32.0640 O   0  0  0  0  0  0  0  0  0  0  0  0
   42.3770   36.5640   31.1960 C   0  0  0  0  0  0  0  0  0  0  0  0
   41.3720   37.5990   29.2500 O   0  0  0  0  0  0  0  0  0  0  0  0
   40.3150   36.3900   34.0040 O   0  0  0  0  0  0  0  0  0  0  0  0
  2  1  1  0
  2  7  1  0
  2  8  1  0
  3  5  2  0
  4  8  2  0
  7 12  1  0
  8  6  1  0
  9 12  1  0
  9 10  1  0
  9  3  1  0
 10 14  1  0
 11 10  2  0
 13  7  2  0
M  END
$$$$

     RDKit          3D

 11 12  0  0  0  0  0  0  0  0999 V2000
   42.4100   37.1280   28.8940 C   0  0  0  0  0  0  0  0  0  0  0  0
   42.2940   39.5280   30.1680 C   0  0  0  0  0  0  0  0  0  0  0  0
   42.5180   39.1530   28.0810 C   0  0  0  0  0  0  0  0  0  0  0  0
   42.3940   38.5630   29.0790 N   0  0  0  0  0  0  0  0  0  0  0  0
   42.5030   40.4360   27.7910 O   0  0  0  0  0  0  0  0  0  0  0  0
   42.0150   36.2740   29.6230 O   0  0  0  0  0  0  0  0  0  0  0  0
   42.2670   35.7080   26.7320 C   0  0  0  0  0  0  0  0  0  0  0  0
   43.3870   38.7420   25.8080 O   0  0  0  0  0  0  0  0  0  0  0  0
   43.5470   36.2570   26.4260 O   0  0  0  0  0  0  0  0  0  0  0  0
   42.3890   38.4080   26.7290 C   0  0  0  0  0  0  0  0  0  0  0  0
   42.5860   37.0090   27.3020 C   0  0  0  0  0  0  0  0  0  0  0  0
  1  4  1  0
  1  6  2  0
  3  4  1  0
  4  2  1  0
  5  3  2  0
  9  7  1  0
  9 11  1  0
 10  8  1  0
 10 11  1  0
 10  3  1  0
 11  7  1  0
 11  1  1  0
M  END
$$$$

     RDKit          3D

 14 14  0  0  0  0  0  0  0  0999 V2000
   38.3260   35.6430   31.5520 C   0  0  0  0  0  0  0  0  0  0  0  0
   39.4170   35.2910   30.5300 C   0  0  0  0  0  0  0  0  0  0  0  0
   44.0460   38.2550   31.3750 O   0  0  0  0  0  0  0  0  0  0  0  0
   42.8210   37.9100   30.8790 C   0  0  0  0  0  0  0  0  0  0  0  0
   41.7580   38.0280   31.7040 N   0  0  0  0  0  0  0  0  0  0  0  0
   41.6440   36.4130   29.3690 C   0  0  0  0  0  0  0  0  0  0  0  0
   38.0930   33.5860   32.9860 N   0  0  0  0  0  0  0  0  0  0  0  0
   43.9710   37.4250   28.7940 C   0  0  0  0  0  0  0  0  0  0  0  0
   40.5660   36.3070   30.5720 C   0  0  0  0  0  0  0  0  0  0  0  0
   41.9140   34.9390   28.3900 Cl  0  0  0  0  0  0  0  0  0  0  0  0
   37.4580   34.6110   32.1100 C   0  0  0  0  0  0  0  0  0  0  0  0
   42.7170   37.4030   29.6250 N   0  0  0  0  0  0  0  0  0  0  0  0
   40.6460   37.2330   31.5790 C   0  0  0  0  0  0  0  0  0  0  0  0
   44.5970   36.1620   28.8760 O   0  0  0  0  0  0  0  0  0  0  0  0
  1 11  1  0
  2  9  1  0
  2  1  1  0
  4  3  2  0
  4  5  1  0
  6 10  1  0
  6 12  1  0
  6  9  1  0
  8 14  1  0
  8 12  1  0
  9 13  2  0
 11  7  1  0
 12  4  1  0
 13  5  1  0
M  END
$$$$

     RDKit          3D

  9  9  0  0  0  0  0  0  0  0999 V2000
   40.4910   36.2110   30.0620 C   0  0  0  0  0  0  0  0  0  0  0  0
   41.1880   35.3690   29.1820 C   0  0  0  0  0  0  0  0  0  0  0  0
   39.2300   35.6390   30.7980 C   0  0  0  0  0  0  0  0  0  0  0  0
   39.9110   35.6520   32.1490 C   0  0  0  0  0  0  0  0  0  0  0  0
   41.6490   38.1740   29.2540 C   0  0  0  0  0  0  0  0  0  0  0  0
   42.9680   36.5080   27.8380 C   0  0  0  0  0  0  0  0  0  0  0  0
   42.7990   37.3920   28.9520 C   0  0  0  0  0  0  0  0  0  0  0  0
   42.0780   35.4190   28.1500 C   0  0  0  0  0  0  0  0  0  0  0  0
   40.4750   37.5870   29.8530 C   0  0  0  0  0  0  0  0  0  0  0  0
  1  3  1  0
  2  1  2  0
  3  4  1  0
  5  9  2  0
  6  8  1  0
  6  7  1  0
  7  5  1  0
  8  2  1  0
  9  1  1  0
M  END
$$$$

     RDKit          3D

 13 14  0  0  0  0  0  0  0  0999 V2000
   34.5640   31.7220   31.8260 C   0  0  0  0  0  0  0  0  0  0  0  0
   35.8580   32.1620   31.9080 C   0  0  0  0  0  0  0  0  0  0  0  0
   37.7390   32.6570   30.5800 C   0  0  0  0  0  0  0  0  0  0  0  0
   34.6310   33.7250   33.0840 C   0  0  0  0  0  0  0  0  0  0  0  0
   32.0810   32.2700   31.3990 O   0  0  0  0  0  0  0  0  0  0  0  0
   33.5210   33.3870   32.7020 N   0  0  0  0  0  0  0  0  0  0  0  0
   39.6430   32.8680   29.1140 O   0  0  0  0  0  0  0  0  0  0  0  0
   33.5040   34.0580   34.1200 S   0  0  0  0  0  0  0  0  0  0  0  0
   39.2910   34.4560   30.7890 C   0  0  0  0  0  0  0  0  0  0  0  0
   38.9400   33.2740   30.0620 C   0  0  0  0  0  0  0  0  0  0  0  0
   35.8280   33.4040   32.4510 C   0  0  0  0  0  0  0  0  0  0  0  0
   37.1290   32.0190   30.9880 C   0  0  0  0  0  0  0  0  0  0  0  0
   33.4440   32.4880   31.8830 C   0  0  0  0  0  0  0  0  0  0  0  0
  1 13  1  0
  1  2  1  0
  2 12  1  0
  2 11  1  0
  3 12  2  0
  4 11  1  0
  4  8  1  0
  5 13  2  0
  6  4  1  0
  6  8  1  0
  7 10  1  0
 10  3  2  0
 10  9  1  0
 13  6  1  0
M  END
$$$$

     RDKit          3D

 21 22  0  0  0  0  0  0  0  0999 V2000
   39.8480   37.9430   28.7430 C   0  0  0  0  0  0  0  0  0  0  0  0
   38.6350   34.6950   31.4770 C   0  0  0  0  0  0  0  0  0  0  0  0
   36.7660   31.6040   34.7790 C   0  0  0  0  0  0  0  0  0  0  0  0
   40.4460   38.1850   27.3830 C   0  0  0  0  0  0  0  0  0  0  0  0
   42.4730   36.7020   33.2750 O   0  0  0  0  0  0  0  0  0  0  0  0
   36.6520   31.0170   35.9650 C   0  0  0  0  0  0  0  0  0  0  0  0
   38.4050   33.2180   35.4900 C   0  0  0  0  0  0  0  0  0  0  0  0
   40.0290   35.0820   31.4160 N   0  0  0  0  0  0  0  0  0  0  0  0
   41.0800   37.1990   26.7490 C   0  0  0  0  0  0  0  0  0  0  0  0
   40.4660   36.3260   32.0040 C   0  0  0  0  0  0  0  0  0  0  0  0
   41.3980   36.0830   33.1760 C   0  0  0  0  0  0  0  0  0  0  0  0
   38.3390   32.6100   36.7700 C   0  0  0  0  0  0  0  0  0  0  0  0
   41.4180   36.0130   27.4680 C   0  0  0  0  0  0  0  0  0  0  0  0
   41.1670   35.1570   33.9430 O   0  0  0  0  0  0  0  0  0  0  0  0
   37.4570   31.5190   36.9240 C   0  0  0  0  0  0  0  0  0  0  0  0
   37.9460   32.7060   32.9980 C   0  0  0  0  0  0  0  0  0  0  0  0
   37.7800   32.5510   34.5380 C   0  0  0  0  0  0  0  0  0  0  0  0
   40.8790   37.4300   31.0330 C   0  0  0  0  0  0  0  0  0  0  0  0
   38.6560   33.8050   32.6510 C   0  0  0  0  0  0  0  0  0  0  0  0
   40.7920   37.1240   29.5420 C   0  0  0  0  0  0  0  0  0  0  0  0
   41.5410   36.1860   28.8610 C   0  0  0  0  0  0  0  0  0  0  0  0
  1 20  1  0
  2 19  1  0
  3  6  1  0
  4  1  1  0
  6 15  2  0
  7 12  2  0
  8  2  1  0
  8 10  1  0
  9  4  2  0
  9 13  1  0
 10 18  1  0
 10 11  1  0
 11  5  2  0
 11 14  1  0
 12 15  1  0
 13 21  1  0
 16 17  1  0
 17  3  2  0
 17  7  1  0
 19 16  1  0
 20 18  1  0
 21 20  2  0
M  END
$$$$

     RDKit          3D

 18 19  0  0  0  0  0  0  0  0999 V2000
   42.0060   39.5890   29.4850 C   0  0  0  0  0  0  0  0  0  0  0  0
   40.0020   36.2350   30.6360 C   0  0  0  0  0  0  0  0  0  0  0  0
   35.7690   34.4620   33.4850 C   0  0  0  0  0  0  0  0  0  0  0  0
   40.9680   36.9960   29.9450 C   0  0  0  0  0  0  0  0  0  0  0  0
   41.8980   36.6770   29.0240 N   0  0  0  0  0  0  0  0  0  0  0  0
   35.1430   33.8250   34.4440 C   0  0  0  0  0  0  0  0  0  0  0  0
   39.8840   34.3090   28.9400 C   0  0  0  0  0  0  0  0  0  0  0  0
   41.1210   34.4430   28.2750 C   0  0  0  0  0  0  0  0  0  0  0  0
   38.2030   34.4430   30.8200 C   0  0  0  0  0  0  0  0  0  0  0  0
   37.4920   35.1040   31.8460 C   0  0  0  0  0  0  0  0  0  0  0  0
   36.8510   32.9040   31.7080 C   0  0  0  0  0  0  0  0  0  0  0  0
   41.4150   38.5740   30.6610 S   0  0  0  0  0  0  0  0  0  0  0  0
   42.1210   35.5310   28.3180 C   0  0  0  0  0  0  0  0  0  0  0  0
   36.7720   34.0080   32.5030 N   0  0  0  0  0  0  0  0  0  0  0  0
   37.7470   33.0920   30.6890 C   0  0  0  0  0  0  0  0  0  0  0  0
   42.0740   40.1330   28.3860 N   0  0  0  0  0  0  0  0  0  0  0  0
   39.2950   34.9540   30.0690 C   0  0  0  0  0  0  0  0  0  0  0  0
   43.1560   35.4680   27.1780 N   0  0  0  0  0  0  0  0  0  0  0  0
  1 12  1  0
  3  6  2  0
  4  2  2  0
  4 12  1  0
  5  4  1  0
  8 13  1  0
  8  7  2  0
  9 15  1  0
  9 10  1  0
 10 14  1  0
 11 14  1  0
 13  5  2  0
 14  3  1  0
 15 11  1  0
 16  1  3  0
 17  7  1  0
 17  2  1  0
 17  9  1  0
 18 13  1  0
M  END
$$$$

     RDKit          3D

  9  8  0  0  0  0  0  0  0  0999 V2000
   43.8540   38.7030   27.3170 O   0  0  0  0  0  0  0  0  0  0  0  0
   41.8520   39.8650   27.5110 C   0  0  0  0  0  0  0  0  0  0  0  0
   43.4500   36.2130   27.3220 O   0  0  0  0  0  0  0  0  0  0  0  0
   43.9620   36.6880   28.4740 C   0  0  0  0  0  0  0  0  0  0  0  0
   41.9790   37.8470   28.9290 O   0  0  0  0  0  0  0  0  0  0  0  0
   42.6070   38.6840   28.2080 C   0  0  0  0  0  0  0  0  0  0  0  0
   44.4100   38.0740   28.4730 N   0  0  0  0  0  0  0  0  0  0  0  0
   45.1420   35.8560   28.7330 O   0  0  0  0  0  0  0  0  0  0  0  0
   42.7980   41.3990   26.9230 S   0  0  0  0  0  0  0  0  0  0  0  0
  1  6  1  0
  1  7  1  0
  2  6  1  0
  3  4  1  0
  4  8  1  0
  6  5  2  0
  7  4  1  0
  9  2  1  0
M  END
$$$$

     RDKit          3D

  7  6  0  0  0  0  0  0  0  0999 V2000
   42.2900   38.2750   28.8910 Cl  0  0  0  0  0  0  0  0  0  0  0  0
   42.2970   36.3350   26.5490 C   0  0  0  0  0  0  0  0  0  0  0  0
   44.2560   37.4280   26.8470 C   0  0  0  0  0  0  0  0  0  0  0  0
   41.2660   35.4510   27.0960 O   0  0  0  0  0  0  0  0  0  0  0  0
   44.1450   37.6500   28.1860 C   0  0  0  0  0  0  0  0  0  0  0  0
   43.3720   36.3480   26.2960 C   0  0  0  0  0  0  0  0  0  0  0  0
   41.6630   37.6040   26.0340 O   0  0  0  0  0  0  0  0  0  0  0  0
  2  4  1  0
  3  5  1  0
  5  1  1  0
  6  2  1  0
  6  3  1  0
  7  2  2  0
M  END
$$$$

     RDKit          3D

 16 18  0  0  0  0  0  0  0  0999 V2000
   38.9960   31.2750   34.2260 N   0  0  0  0  0  0  0  0  0  0  0  0
   42.6260   39.3840   32.5780 N   0  0  0  0  0  0  0  0  0  0  0  0
   41.2760   33.8850   32.8600 C   0  0  0  0  0  0  0  0  0  0  0  0
   43.4850   38.6320   31.7740 C   0  0  0  0  0  0  0  0  0  0  0  0
   42.0860   35.0540   32.3490 N   0  0  0  0  0  0  0  0  0  0  0  0
   39.2300   32.5680   33.7590 C   0  0  0  0  0  0  0  0  0  0  0  0
   42.0810   36.4930   31.8060 C   0  0  0  0  0  0  0  0  0  0  0  0
   43.8120   39.2700   30.3790 C   0  0  0  0  0  0  0  0  0  0  0  0
   38.4530   33.4930   33.8900 O   0  0  0  0  0  0  0  0  0  0  0  0
   45.0450   40.1140   30.3600 C   0  0  0  0  0  0  0  0  0  0  0  0
   43.0510   37.2390   31.4420 N   0  0  0  0  0  0  0  0  0  0  0  0
   43.1730   32.8920   31.7380 C   0  0  0  0  0  0  0  0  0  0  0  0
   40.4540   32.6050   32.8310 C   0  0  0  0  0  0  0  0  0  0  0  0
   42.0050   32.5970   32.7620 C   0  0  0  0  0  0  0  0  0  0  0  0
   41.0560   35.0800   33.4720 C   0  0  0  0  0  0  0  0  0  0  0  0
   43.1460   34.3650   31.5080 C   0  0  0  0  0  0  0  0  0  0  0  0
  3 15  1  0
  4  2  1  0
  5  7  1  0
  5  3  1  0
  5 15  1  0
  6  9  2  0
  6  1  1  0
  8  4  1  0
 10  8  1  0
 11  4  1  0
 11  7  1  0
 13  3  1  0
 13  6  1  0
 14 12  1  0
 14 13  1  0
 14  3  1  0
 16 12  1  0
 16  5  1  0
M  END
$$$$

     RDKit          3D

 10  9  0  0  0  0  0  0  0  0999 V2000
   37.6300   33.7320   32.1290 O   0  0  0  0  0  0  0  0  0  0  0  0
   40.7020   36.6310   34.8310 C   0  0  0  0  0  0  0  0  0  0  0  0
   40.1960   35.0450   32.8450 C   0  0  0  0  0  0  0  0  0  0  0  0
   37.9100   33.0620   33.0400 C   0  0  0  0  0  0  0  0  0  0  0  0
   37.2180   31.8150   33.1050 O   0  0  0  0  0  0  0  0  0  0  0  0
   41.7600   36.1380   35.7960 C   0  0  0  0  0  0  0  0  0  0  0  0
   39.0110   33.1270   33.8430 N   0  0  0  0  0  0  0  0  0  0  0  0
   40.8540   35.1430   36.6860 N   0  0  0  0  0  0  0  0  0  0  0  0
   40.9940   36.1870   33.4390 C   0  0  0  0  0  0  0  0  0  0  0  0
   39.9650   33.9980   33.9170 C   0  0  0  0  0  0  0  0  0  0  0  0
  1  4  2  0
  2  6  1  0
  3  9  1  0
  3 10  1  0
  4  5  1  0
  4  7  1  0
  6  8  1  0
  7 10  2  3
  9  2  1  0
M  END
$$$$

     RDKit          3D

 12 12  0  0  0  0  0  0  0  0999 V2000
   41.9250   37.2720   29.7340 O   0  0  0  0  0  0  0  0  0  0  0  0
   42.4840   38.6100   31.7210 O   0  0  0  0  0  0  0  0  0  0  0  0
   41.4910   34.6600   27.6040 O   0  0  0  0  0  0  0  0  0  0  0  0
   41.0200   37.6480   27.7760 N   0  0  0  0  0  0  0  0  0  0  0  0
   40.3520   35.8730   26.0770 O   0  0  0  0  0  0  0  0  0  0  0  0
   39.5500   36.8150   29.6100 C   0  0  0  0  0  0  0  0  0  0  0  0
   40.2680   36.5810   28.3030 C   0  0  0  0  0  0  0  0  0  0  0  0
   41.2310   38.1960   31.7660 C   0  0  0  0  0  0  0  0  0  0  0  0
   40.2690   35.4050   27.4310 C   0  0  0  0  0  0  0  0  0  0  0  0
   41.9210   37.9130   28.5270 C   0  0  0  0  0  0  0  0  0  0  0  0
   40.6650   37.6280   30.4440 C   0  0  0  0  0  0  0  0  0  0  0  0
   40.4440   38.5060   32.7310 O   0  0  0  0  0  0  0  0  0  0  0  0
  1 11  1  0
  2  8  2  0
  4  7  1  0
  4 10  1  0
  5  9  1  0
  6 11  1  0
  7  9  1  0
  7  6  1  0
  8 12  1  0
  9  3  1  0
 10  1  1  0
 11  8  1  0
M  END
$$$$

     RDKit          3D

  6  5  0  0  0  0  0  0  0  0999 V2000
   38.6990   33.7120   32.2860 C   0  0  0  0  0  0  0  0  0  0  0  0
   39.3880   33.9780   33.5730 C   0  0  0  0  0  0  0  0  0  0  0  0
   40.8800   34.2450   33.4360 C   0  0  0  0  0  0  0  0  0  0  0  0
   40.9380   35.7490   33.4260 C   0  0  0  0  0  0  0  0  0  0  0  0
   40.6810   36.4560   32.2670 C   0  0  0  0  0  0  0  0  0  0  0  0
   38.6970   34.8900   34.5700 C   0  0  0  0  0  0  0  0  0  0  0  0
  1  2  1  0
  2  6  1  0
  3  2  1  0
  4  3  1  0
  5  4  1  0
M  END
$$$$

     RDKit          3D

 15 15  0  0  0  0  0  0  0  0999 V2000
   48.4970   37.7920   31.0170 O   0  0  0  0  0  0  0  0  0  0  0  0
   44.5200   38.7240   29.4320 O   0  0  0  0  0  0  0  0  0  0  0  0
   41.9500   35.5450   28.2650 C   0  0  0  0  0  0  0  0  0  0  0  0
   46.6050   38.9600   31.2230 O   0  0  0  0  0  0  0  0  0  0  0  0
   45.0360   36.9340   27.9580 C   0  0  0  0  0  0  0  0  0  0  0  0
   43.8210   36.7830   27.6710 O   0  0  0  0  0  0  0  0  0  0  0  0
   41.0720   35.0900   27.3960 O   0  0  0  0  0  0  0  0  0  0  0  0
   42.0320   38.0820   28.9540 S   0  0  0  0  0  0  0  0  0  0  0  0
   46.6420   37.2190   29.7950 C   0  0  0  0  0  0  0  0  0  0  0  0
   45.9430   35.7030   27.9240 C   0  0  0  0  0  0  0  0  0  0  0  0
   47.3600   38.1070   30.6020 C   0  0  0  0  0  0  0  0  0  0  0  0
   42.5770   35.0330   29.1660 O   0  0  0  0  0  0  0  0  0  0  0  0
   43.2830   39.0240   29.0130 C   0  0  0  0  0  0  0  0  0  0  0  0
   45.6070   37.9780   28.9390 C   0  0  0  0  0  0  0  0  0  0  0  0
   42.3970   36.9450   27.8230 C   0  0  0  0  0  0  0  0  0  0  0  0
  3 12  1  0
  5 10  1  0
  5 14  1  0
  6 15  1  0
  6  5  1  0
  7  3  2  0
  8 13  1  0
  9 11  1  0
 11  1  2  0
 11  4  1  0
 13  2  1  0
 14  2  1  0
 14  9  1  0
 15  3  1  0
 15  8  1  0
M  END
$$$$

     RDKit          3D

 27 28  0  0  0  0  0  0  0  0999 V2000
   35.5430   33.0690   30.5340 C   0  0  0  0  0  0  0  0  0  0  0  0
   34.9730   30.9480   29.9030 C   0  0  0  0  0  0  0  0  0  0  0  0
   32.3090   32.4990   32.1420 C   0  0  0  0  0  0  0  0  0  0  0  0
   44.0390   38.2990   34.9370 C   0  0  0  0  0  0  0  0  0  0  0  0
   44.5700   37.2750   35.4690 O   0  0  0  0  0  0  0  0  0  0  0  0
   41.8690   33.8680   29.3010 O   0  0  0  0  0  0  0  0  0  0  0  0
   33.8830   34.2810   31.7820 O   0  0  0  0  0  0  0  0  0  0  0  0
   38.0060   33.6230   31.3090 C   0  0  0  0  0  0  0  0  0  0  0  0
   33.4970   32.0500   31.2970 C   0  0  0  0  0  0  0  0  0  0  0  0
   44.3380   36.8210   29.9480 C   0  0  0  0  0  0  0  0  0  0  0  0
   43.2890   39.0640   35.5800 O   0  0  0  0  0  0  0  0  0  0  0  0
   35.9350   31.8400   30.1110 N   0  0  0  0  0  0  0  0  0  0  0  0
   42.5360   34.7870   29.4970 C   0  0  0  0  0  0  0  0  0  0  0  0
   43.2340   36.4750   30.9540 C   0  0  0  0  0  0  0  0  0  0  0  0
   36.5970   34.0650   30.9700 C   0  0  0  0  0  0  0  0  0  0  0  0
   43.5020   34.8560   28.7230 O   0  0  0  0  0  0  0  0  0  0  0  0
   44.6830   38.7080   33.6530 C   0  0  0  0  0  0  0  0  0  0  0  0
   33.6340   31.1830   30.1760 C   0  0  0  0  0  0  0  0  0  0  0  0
   36.5850   35.4590   31.5550 C   0  0  0  0  0  0  0  0  0  0  0  0
   39.9270   34.8190   30.5790 O   0  0  0  0  0  0  0  0  0  0  0  0
   38.6840   34.8160   31.1370 C   0  0  0  0  0  0  0  0  0  0  0  0
   42.2090   35.6660   30.4700 C   0  0  0  0  0  0  0  0  0  0  0  0
   34.2660   33.2420   30.9820 C   0  0  0  0  0  0  0  0  0  0  0  0
   37.9800   35.9130   31.4010 C   0  0  0  0  0  0  0  0  0  0  0  0
   43.0270   37.2490   32.2530 C   0  0  0  0  0  0  0  0  0  0  0  0
   40.9140   35.4570   31.1470 C   0  0  0  0  0  0  0  0  0  0  0  0
   44.0580   38.0360   32.5050 C   0  0  0  0  0  0  0  0  0  0  0  0
  1 12  1  0
  1 15  1  0
  1 23  1  0
  2 12  2  0
  2 18  1  0
  4  5  2  0
  4 11  1  0
  6 13  1  0
  9  3  1  0
 13 22  1  0
 14 10  1  0
 14 25  1  0
 15  8  1  0
 15 19  1  0
 16 13  2  0
 17  4  1  0
 18  9  1  0
 20 26  1  0
 21 20  1  0
 21  8  1  0
 21 24  1  0
 22 14  1  0
 22 26  1  0
 23  9  1  0
 23  7  1  0
 24 19  1  0
 25 27  1  0
 27 17  1  0
M  END
$$$$

     RDKit          3D

 11 10  0  0  0  0  0  0  0  0999 V2000
   44.3710   38.9730   30.5290 O   0  0  0  0  0  0  0  0  0  0  0  0
   42.9950   39.6760   27.1150 C   0  0  0  0  0  0  0  0  0  0  0  0
   41.7750   35.6030   26.4690 C   0  0  0  0  0  0  0  0  0  0  0  0
   43.9040   38.6230   26.9360 C   0  0  0  0  0  0  0  0  0  0  0  0
   43.7920   40.6320   29.9630 O   0  0  0  0  0  0  0  0  0  0  0  0
   43.0490   35.8490   28.4960 O   0  0  0  0  0  0  0  0  0  0  0  0
   43.9980   37.2840   26.9290 C   0  0  0  0  0  0  0  0  0  0  0  0
   41.9360   39.2780   28.0890 C   0  0  0  0  0  0  0  0  0  0  0  0
   43.5480   39.4150   29.9900 C   0  0  0  0  0  0  0  0  0  0  0  0
   43.1200   36.1650   27.0830 C   0  0  0  0  0  0  0  0  0  0  0  0
   42.2560   38.8590   29.4670 C   0  0  0  0  0  0  0  0  0  0  0  0
  2  8  1  0
  4  2  1  0
  5  9  2  0
  7  4  2  3
  7 10  1  0
  8 11  1  0
  9  1  1  0
 10  3  1  0
 10  6  1  0
 11  9  1  0
M  END
$$$$

     RDKit          3D

 11 11  0  0  0  0  0  0  0  0999 V2000
   42.4730   37.1600   32.7160 N   0  0  0  0  0  0  0  0  0  0  0  0
   41.5620   37.3660   34.1140 C   0  0  0  0  0  0  0  0  0  0  0  0
   38.2780   33.9330   34.5880 C   0  0  0  0  0  0  0  0  0  0  0  0
   39.6000   34.0890   32.6280 C   0  0  0  0  0  0  0  0  0  0  0  0
   40.6020   35.0250   34.7400 C   0  0  0  0  0  0  0  0  0  0  0  0
   41.8220   36.0170   34.7960 C   0  0  0  0  0  0  0  0  0  0  0  0
   42.1560   38.5150   34.5520 N   0  0  0  0  0  0  0  0  0  0  0  0
   40.3250   37.5250   33.2550 C   0  0  0  0  0  0  0  0  0  0  0  0
   40.6820   33.9920   33.6170 C   0  0  0  0  0  0  0  0  0  0  0  0
   38.2370   33.5440   33.2630 C   0  0  0  0  0  0  0  0  0  0  0  0
   39.1430   35.0380   35.1260 C   0  0  0  0  0  0  0  0  0  0  0  0
  1  2  1  0
  2  7  1  0
  2  6  1  0
  3 11  1  0
  4 10  1  0
  4  9  1  0
  5  6  1  0
  5 11  2  0
  8  2  1  0
  9  5  1  0
 10  3  1  0
M  END
$$$$
