
     RDKit          3D

 15 17  0  0  0  0  0  0  0  0999 V2000
   38.9150   40.3000   27.9590 C   0  0  0  0  0  0  0  0  0  0  0  0
   38.2870   39.8320   30.7900 O   0  0  0  0  0  0  0  0  0  0  0  0
   37.9420   39.1280   27.9910 C   0  0  0  0  0  0  0  0  0  0  0  0
   36.6350   40.7030   29.5960 C   0  0  0  0  0  0  0  0  0  0  0  0
   36.1090   37.0300   30.8720 C   0  0  0  0  0  0  0  0  0  0  0  0
   38.9380   41.1120   29.1210 C   0  0  0  0  0  0  0  0  0  0  0  0
   36.6570   39.4480   28.8050 C   0  0  0  0  0  0  0  0  0  0  0  0
   37.3530   37.9490   31.2500 C   0  0  0  0  0  0  0  0  0  0  0  0
   37.2820   39.1830   31.3740 O   0  0  0  0  0  0  0  0  0  0  0  0
   35.6530   39.7670   29.8350 O   0  0  0  0  0  0  0  0  0  0  0  0
   37.9270   41.0160   30.2380 C   0  0  0  0  0  0  0  0  0  0  0  0
   39.2270   40.7800   26.5250 C   0  0  0  0  0  0  0  0  0  0  0  0
   37.2730   37.2640   32.8170 S   0  0  0  0  0  0  0  0  0  0  0  0
   39.5540   42.1610   29.1670 O   0  0  0  0  0  0  0  0  0  0  0  0
   36.0800   36.2940   32.2170 C   0  0  0  0  0  0  0  0  0  0  0  0
  1 12  1  0
  1  3  1  0
  1  6  1  0
  2  9  1  0
  4 10  1  0
  4 11  1  0
  5  8  1  0
  5 15  1  0
  6 14  2  0
  6 11  1  0
  7  3  1  0
  7  4  1  0
  7 10  1  0
  8  9  1  0
  8 13  1  0
 11  2  1  0
 15 13  1  0
M  END
$$$$

     RDKit          3D

 31 32  0  0  0  0  0  0  0  0999 V2000
   34.5870   35.6700   35.9950 C   0  0  0  0  0  0  0  0  0  0  0  0
   35.5210   42.4300   22.4480 C   0  0  0  0  0  0  0  0  0  0  0  0
   36.6340   37.0230   32.0770 C   0  0  0  0  0  0  0  0  0  0  0  0
   36.1150   33.0560   37.0080 C   0  0  0  0  0  0  0  0  0  0  0  0
   37.6660   32.0330   34.6440 O   0  0  0  0  0  0  0  0  0  0  0  0
   36.0330   42.1480   23.6810 C   0  0  0  0  0  0  0  0  0  0  0  0
   36.2350   39.6610   30.3240 C   0  0  0  0  0  0  0  0  0  0  0  0
   38.1090   40.2190   27.0480 C   0  0  0  0  0  0  0  0  0  0  0  0
   34.0970   35.7750   34.5560 C   0  0  0  0  0  0  0  0  0  0  0  0
   37.6080   38.0950   31.9460 C   0  0  0  0  0  0  0  0  0  0  0  0
   37.1770   35.5890   32.3640 C   0  0  0  0  0  0  0  0  0  0  0  0
   36.1940   31.7540   37.4750 O   0  0  0  0  0  0  0  0  0  0  0  0
   37.2010   40.4360   24.9100 C   0  0  0  0  0  0  0  0  0  0  0  0
   36.9190   44.2450   24.2890 O   0  0  0  0  0  0  0  0  0  0  0  0
   36.1960   34.7730   33.4000 C   0  0  0  0  0  0  0  0  0  0  0  0
   35.2430   43.7730   22.1060 O   0  0  0  0  0  0  0  0  0  0  0  0
   38.5010   40.6340   24.2830 O   0  0  0  0  0  0  0  0  0  0  0  0
   37.0660   41.0520   26.2410 C   0  0  0  0  0  0  0  0  0  0  0  0
   36.6790   42.5250   26.0260 C   0  0  0  0  0  0  0  0  0  0  0  0
   34.9810   35.5850   33.4330 O   0  0  0  0  0  0  0  0  0  0  0  0
   35.2430   36.3850   36.7130 O   0  0  0  0  0  0  0  0  0  0  0  0
   36.2080   40.6920   23.8720 C   0  0  0  0  0  0  0  0  0  0  0  0
   36.7220   42.9760   24.5680 C   0  0  0  0  0  0  0  0  0  0  0  0
   36.3920   32.3960   34.1060 C   0  0  0  0  0  0  0  0  0  0  0  0
   35.6170   33.6480   34.5100 C   0  0  0  0  0  0  0  0  0  0  0  0
   35.5530   41.3610   21.3650 C   0  0  0  0  0  0  0  0  0  0  0  0
   34.4110   34.4220   36.8330 C   0  0  0  0  0  0  0  0  0  0  0  0
   35.0100   33.3150   35.9860 C   0  0  0  0  0  0  0  0  0  0  0  0
   37.5680   39.3410   31.0560 C   0  0  0  0  0  0  0  0  0  0  0  0
   37.8280   40.3150   28.5140 C   0  0  0  0  0  0  0  0  0  0  0  0
   36.3880   39.7540   28.7770 C   0  0  0  0  0  0  0  0  0  0  0  0
  1 21  2  0
  1 27  1  0
  2 26  1  0
  3 11  1  0
  4 12  1  0
  6  2  1  0
  6 22  1  0
  6 23  1  0
  7 29  1  0
  8 30  1  0
  9  1  1  0
 10  3  1  0
 13 17  1  0
 13 18  1  0
 15 11  1  0
 15 20  1  0
 15 25  1  0
 16  2  1  0
 18  8  1  0
 19 18  1  0
 20  9  1  0
 22 13  1  0
 23 14  1  0
 23 19  1  0
 24  5  1  0
 25 24  1  0
 25 28  1  0
 28 27  1  0
 28  4  1  0
 29 10  2  3
 30 31  1  0
 31  7  1  0
M  END
$$$$

     RDKit          3D

 15 16  0  0  0  0  0  0  0  0999 V2000
   36.3080   36.3190   32.8480 S   0  0  0  0  0  0  0  0  0  0  0  0
   39.6730   41.5980   30.4360 O   0  0  0  0  0  0  0  0  0  0  0  0
   36.9940   34.0640   34.2320 N   0  0  0  0  0  0  0  0  0  0  0  0
   37.4480   39.3540   31.4570 C   0  0  0  0  0  0  0  0  0  0  0  0
   38.7310   36.7500   33.1160 O   0  0  0  0  0  0  0  0  0  0  0  0
   38.1380   33.3000   34.8480 C   0  0  0  0  0  0  0  0  0  0  0  0
   39.0840   41.2620   31.7010 C   0  0  0  0  0  0  0  0  0  0  0  0
   37.3900   37.4480   33.0310 C   0  0  0  0  0  0  0  0  0  0  0  0
   39.7940   42.5360   32.5160 O   0  0  0  0  0  0  0  0  0  0  0  0
   38.0210   38.6730   32.5310 C   0  0  0  0  0  0  0  0  0  0  0  0
   39.5710   40.3230   32.7900 C   0  0  0  0  0  0  0  0  0  0  0  0
   39.0530   39.2170   33.2240 C   0  0  0  0  0  0  0  0  0  0  0  0
   37.3400   35.1120   33.3690 C   0  0  0  0  0  0  0  0  0  0  0  0
   38.6790   35.6900   33.9130 C   0  0  0  0  0  0  0  0  0  0  0  0
   37.8280   40.4310   31.0570 C   0  0  0  0  0  0  0  0  0  0  0  0
  1 13  1  0
  2  7  1  0
  3  6  1  0
  5 14  1  0
  7  9  1  0
  7 11  1  0
  8  1  1  0
  8  5  1  0
 10  4  1  0
 10  8  1  0
 10 12  1  0
 11 12  2  0
 13 14  1  0
 13  3  1  0
 15  4  2  0
 15  7  1  0
M  END
$$$$

     RDKit          3D

 20 21  0  0  0  0  0  0  0  0999 V2000
   40.5070   40.9520   27.5560 O   0  0  0  0  0  0  0  0  0  0  0  0
   35.6150   38.8890   29.4140 C   0  0  0  0  0  0  0  0  0  0  0  0
   37.4750   39.9850   28.4290 C   0  0  0  0  0  0  0  0  0  0  0  0
   36.0770   37.2210   31.4040 C   0  0  0  0  0  0  0  0  0  0  0  0
   36.1670   39.9450   28.6800 C   0  0  0  0  0  0  0  0  0  0  0  0
   39.8840   38.9240   26.1840 O   0  0  0  0  0  0  0  0  0  0  0  0
   35.4600   35.4020   33.4780 C   0  0  0  0  0  0  0  0  0  0  0  0
   36.1590   36.5270   33.7330 C   0  0  0  0  0  0  0  0  0  0  0  0
   38.2410   39.4730   29.3510 C   0  0  0  0  0  0  0  0  0  0  0  0
   39.1280   41.3780   25.4130 O   0  0  0  0  0  0  0  0  0  0  0  0
   39.6530   40.3690   26.5580 P   0  0  0  0  0  0  0  0  0  0  0  0
   37.5760   39.2060   30.6150 C   0  0  0  0  0  0  0  0  0  0  0  0
   38.2860   38.7450   31.6260 O   0  0  0  0  0  0  0  0  0  0  0  0
   36.5620   37.2510   32.6740 C   0  0  0  0  0  0  0  0  0  0  0  0
   36.3670   38.3100   30.4680 C   0  0  0  0  0  0  0  0  0  0  0  0
   38.0700   40.1490   27.2530 C   0  0  0  0  0  0  0  0  0  0  0  0
   35.3320   36.0860   31.1350 C   0  0  0  0  0  0  0  0  0  0  0  0
   34.9780   35.2310   32.1700 C   0  0  0  0  0  0  0  0  0  0  0  0
   35.3880   34.4500   34.7430 C   0  0  0  0  0  0  0  0  0  0  0  0
   35.3750   41.3660   28.1630 Cl  0  0  0  0  0  0  0  0  0  0  0  0
  2 15  2  0
  3 16  1  0
  3  5  1  0
  3  9  1  0
  4 14  1  0
  5 20  1  0
  5  2  1  0
  6 11  1  0
  7  8  1  0
  7 19  1  0
  9 12  1  0
 10 11  2  0
 11 16  1  0
 11  1  1  0
 12 13  1  0
 14  8  2  0
 15 12  1  0
 15  4  1  0
 17  4  2  0
 17 18  1  0
 18  7  2  0
M  END
$$$$

     RDKit          3D

 10 10  0  0  0  0  0  0  0  0999 V2000
   37.7890   40.6970   29.3300 C   0  0  0  0  0  0  0  0  0  0  0  0
   36.9160   38.7120   30.3140 C   0  0  0  0  0  0  0  0  0  0  0  0
   35.4010   36.7970   30.9140 C   0  0  0  0  0  0  0  0  0  0  0  0
   37.1660   40.0870   30.5080 O   0  0  0  0  0  0  0  0  0  0  0  0
   35.4490   38.2730   30.3760 C   0  0  0  0  0  0  0  0  0  0  0  0
   38.0140   37.7450   30.6140 C   0  0  0  0  0  0  0  0  0  0  0  0
   36.4980   35.9690   31.0890 C   0  0  0  0  0  0  0  0  0  0  0  0
   34.5730   39.4330   29.7250 C   0  0  0  0  0  0  0  0  0  0  0  0
   34.0810   36.4160   31.1870 C   0  0  0  0  0  0  0  0  0  0  0  0
   37.8090   36.4950   30.8970 C   0  0  0  0  0  0  0  0  0  0  0  0
  1  4  1  0
  2  5  2  0
  2  4  1  0
  2  6  1  0
  3  7  2  0
  3  9  1  0
  5  3  1  0
  6 10  2  0
  8  5  1  0
 10  7  1  0
M  END
$$$$

     RDKit          3D

 15 14  0  0  0  0  0  0  0  0999 V2000
   38.4670   41.9800   29.6150 C   0  0  0  0  0  0  0  0  0  0  0  0
   39.7930   39.5390   28.0710 S   0  0  0  0  0  0  0  0  0  0  0  0
   40.2640   38.0280   28.5380 O   0  0  0  0  0  0  0  0  0  0  0  0
   36.0310   39.2180   30.8830 C   0  0  0  0  0  0  0  0  0  0  0  0
   36.4610   37.7840   30.6930 C   0  0  0  0  0  0  0  0  0  0  0  0
   38.0190   42.9890   30.1930 O   0  0  0  0  0  0  0  0  0  0  0  0
   40.7980   40.2760   28.8460 O   0  0  0  0  0  0  0  0  0  0  0  0
   35.5910   36.1460   32.4620 C   0  0  0  0  0  0  0  0  0  0  0  0
   37.5560   40.8370   29.6510 S   0  0  0  0  0  0  0  0  0  0  0  0
   38.2330   39.7670   28.6360 O   0  0  0  0  0  0  0  0  0  0  0  0
   40.1190   39.2380   26.6640 O   0  0  0  0  0  0  0  0  0  0  0  0
   36.3200   41.1230   28.6400 O   0  0  0  0  0  0  0  0  0  0  0  0
   36.0060   34.8360   32.6200 N   0  0  0  0  0  0  0  0  0  0  0  0
   37.2450   40.1070   30.9270 C   0  0  0  0  0  0  0  0  0  0  0  0
   36.6240   37.1030   32.0030 C   0  0  0  0  0  0  0  0  0  0  0  0
  1  9  1  0
  1  6  1  0
  2  3  1  0
  2 10  1  0
  2  7  1  0
  4 14  1  0
  5  4  1  0
  5 15  1  0
  8 13  1  0
  9 12  1  0
  9 14  1  0
 10  9  1  0
 11  2  1  0
 15  8  1  0
M  END
$$$$

     RDKit          3D

 10 10  0  0  0  0  0  0  0  0999 V2000
   37.9050   36.1430   29.4810 O   0  0  0  0  0  0  0  0  0  0  0  0
   38.4600   38.7770   29.0780 N   0  0  0  0  0  0  0  0  0  0  0  0
   37.2420   38.4530   29.7960 C   0  0  0  0  0  0  0  0  0  0  0  0
   36.1420   36.7220   31.0810 C   0  0  0  0  0  0  0  0  0  0  0  0
   35.5550   35.6440   31.8700 C   0  0  0  0  0  0  0  0  0  0  0  0
   36.2430   40.2720   30.8400 O   0  0  0  0  0  0  0  0  0  0  0  0
   35.5580   37.9620   31.4320 O   0  0  0  0  0  0  0  0  0  0  0  0
   35.0680   35.0600   32.9020 C   0  0  0  0  0  0  0  0  0  0  0  0
   36.2770   38.9170   30.7490 C   0  0  0  0  0  0  0  0  0  0  0  0
   37.2790   37.0590   30.2550 C   0  0  0  0  0  0  0  0  0  0  0  0
  3  2  1  0
  3 10  1  0
  3  9  1  0
  4  7  1  0
  4  5  1  0
  5  8  3  0
  9  6  2  0
  9  7  1  0
 10  1  1  0
 10  4  1  0
M  END
$$$$

     RDKit          3D

 11 12  0  0  0  0  0  0  0  0999 V2000
   37.5100   38.2160   30.2240 C   0  0  0  0  0  0  0  0  0  0  0  0
   36.2350   37.5470   30.6250 C   0  0  0  0  0  0  0  0  0  0  0  0
   34.0050   36.2530   32.0670 C   0  0  0  0  0  0  0  0  0  0  0  0
   36.7910   39.7180   28.2170 C   0  0  0  0  0  0  0  0  0  0  0  0
   33.7790   37.2970   31.0500 C   0  0  0  0  0  0  0  0  0  0  0  0
   35.3290   35.7890   32.2160 C   0  0  0  0  0  0  0  0  0  0  0  0
   34.8260   37.9170   30.3540 C   0  0  0  0  0  0  0  0  0  0  0  0
   36.3970   36.4210   31.5890 C   0  0  0  0  0  0  0  0  0  0  0  0
   34.5110   38.9970   29.3570 C   0  0  0  0  0  0  0  0  0  0  0  0
   35.4950   39.8320   28.7620 C   0  0  0  0  0  0  0  0  0  0  0  0
   37.7410   38.6640   28.8240 C   0  0  0  0  0  0  0  0  0  0  0  0
  2  1  1  0
  2  8  1  0
  3  6  1  0
  4 10  2  0
  4 11  1  0
  5  3  2  0
  7  2  1  0
  7  5  1  0
  8  6  2  0
  9  7  2  0
 10  9  1  0
 11  1  2  0
M  END
$$$$

     RDKit          3D

 16 17  0  0  0  0  0  0  0  0999 V2000
   33.6870   35.2880   31.7620 C   0  0  0  0  0  0  0  0  0  0  0  0
   37.9930   36.6580   30.1830 C   0  0  0  0  0  0  0  0  0  0  0  0
   36.9450   39.0790   28.8300 C   0  0  0  0  0  0  0  0  0  0  0  0
   33.0010   37.8960   30.4160 C   0  0  0  0  0  0  0  0  0  0  0  0
   38.7200   37.5700   29.3210 C   0  0  0  0  0  0  0  0  0  0  0  0
   34.4000   36.3440   31.9750 C   0  0  0  0  0  0  0  0  0  0  0  0
   35.5250   37.6760   30.1770 C   0  0  0  0  0  0  0  0  0  0  0  0
   35.0920   36.3080   33.1630 C   0  0  0  0  0  0  0  0  0  0  0  0
   38.2050   38.7430   28.9670 N   0  0  0  0  0  0  0  0  0  0  0  0
   36.8100   36.7610   30.5120 C   0  0  0  0  0  0  0  0  0  0  0  0
   34.0890   34.1440   33.6430 C   0  0  0  0  0  0  0  0  0  0  0  0
   35.7090   38.7160   29.3280 C   0  0  0  0  0  0  0  0  0  0  0  0
   34.2780   37.3810   30.8110 C   0  0  0  0  0  0  0  0  0  0  0  0
   33.1380   34.4610   32.6850 C   0  0  0  0  0  0  0  0  0  0  0  0
   34.8120   35.3250   34.0930 C   0  0  0  0  0  0  0  0  0  0  0  0
   39.8940   37.1510   28.9270 N   0  0  0  0  0  0  0  0  0  0  0  0
  1  6  1  0
  1 14  1  0
  2 10  1  0
  3  9  2  0
  3 12  1  0
  5  2  2  0
  6  8  2  0
  7 10  1  0
  7 13  1  0
  8 15  1  0
  9  5  1  0
 11 15  1  0
 12  7  2  0
 13  4  1  0
 13  6  1  0
 14 11  1  0
 16  5  1  0
M  END
$$$$

     RDKit          3D

 22 24  0  0  0  0  0  0  0  0999 V2000
   34.2580   35.5330   33.8820 C   0  0  0  0  0  0  0  0  0  0  0  0
   32.3510   33.3090   37.1760 C   0  0  0  0  0  0  0  0  0  0  0  0
   35.2650   36.9300   31.7830 C   0  0  0  0  0  0  0  0  0  0  0  0
   33.3370   35.5860   36.0990 N   0  0  0  0  0  0  0  0  0  0  0  0
   33.8850   33.5260   37.3510 C   0  0  0  0  0  0  0  0  0  0  0  0
   38.9100   41.6410   29.1960 O   0  0  0  0  0  0  0  0  0  0  0  0
   38.1320   39.3010   29.0360 C   0  0  0  0  0  0  0  0  0  0  0  0
   39.0260   38.2360   28.3100 O   0  0  0  0  0  0  0  0  0  0  0  0
   31.2850   33.6760   36.0500 C   0  0  0  0  0  0  0  0  0  0  0  0
   37.6860   38.7870   30.3440 C   0  0  0  0  0  0  0  0  0  0  0  0
   37.1230   39.6630   28.0940 O   0  0  0  0  0  0  0  0  0  0  0  0
   40.1450   38.9710   28.6420 C   0  0  0  0  0  0  0  0  0  0  0  0
   36.5320   36.7970   32.5240 N   0  0  0  0  0  0  0  0  0  0  0  0
   37.5550   36.6500   31.4850 C   0  0  0  0  0  0  0  0  0  0  0  0
   34.2410   34.4160   36.2120 N   0  0  0  0  0  0  0  0  0  0  0  0
   37.0660   37.5460   30.3340 C   0  0  0  0  0  0  0  0  0  0  0  0
   33.1440   35.9250   34.6730 C   0  0  0  0  0  0  0  0  0  0  0  0
   35.4880   35.3920   34.3710 C   0  0  0  0  0  0  0  0  0  0  0  0
   35.5750   37.8230   30.6270 C   0  0  0  0  0  0  0  0  0  0  0  0
   39.1680   40.1560   28.8560 C   0  0  0  0  0  0  0  0  0  0  0  0
   36.6550   35.7550   33.5600 C   0  0  0  0  0  0  0  0  0  0  0  0
   35.6010   34.8760   35.8180 C   0  0  0  0  0  0  0  0  0  0  0  0
  1 18  1  0
  1 17  1  0
  2  5  1  0
  3 13  1  0
  4 15  1  0
  7 11  1  0
  7 10  1  0
  8 12  1  0
  8  7  1  0
  9  2  1  0
 12 20  1  0
 13 21  1  0
 14 13  1  0
 15  5  1  0
 16 10  1  0
 16 19  1  0
 16 14  1  0
 17  4  1  0
 18 21  1  0
 18 22  1  0
 19  3  1  0
 20  7  1  0
 20  6  1  0
 22 15  1  0
M  END
$$$$

     RDKit          3D

 13 14  0  0  0  0  0  0  0  0999 V2000
   35.7200   36.4010   33.2760 C   0  0  0  0  0  0  0  0  0  0  0  0
   36.4080   38.4310   30.0420 C   0  0  0  0  0  0  0  0  0  0  0  0
   36.3650   37.3540   32.0770 C   0  0  0  0  0  0  0  0  0  0  0  0
   38.6990   39.6910   30.1770 C   0  0  0  0  0  0  0  0  0  0  0  0
   37.7680   38.1020   32.1610 S   0  0  0  0  0  0  0  0  0  0  0  0
   36.7740   35.7810   34.3740 C   0  0  0  0  0  0  0  0  0  0  0  0
   38.2120   36.0030   34.0290 N   0  0  0  0  0  0  0  0  0  0  0  0
   37.4840   34.9310   36.5220 N   0  0  0  0  0  0  0  0  0  0  0  0
   35.7010   37.5210   30.9010 C   0  0  0  0  0  0  0  0  0  0  0  0
   34.2680   36.3600   32.9620 C   0  0  0  0  0  0  0  0  0  0  0  0
   34.5040   35.3710   33.7350 N   0  0  0  0  0  0  0  0  0  0  0  0
   37.6110   38.7790   30.7100 C   0  0  0  0  0  0  0  0  0  0  0  0
   36.7960   34.4510   35.3100 C   0  0  0  0  0  0  0  0  0  0  0  0
  1 11  1  0
  1  6  1  0
  2 12  2  0
  2  9  1  0
  3  5  1  0
  3  1  1  0
  4 12  1  0
  6  7  1  0
  6 13  1  0
  9  3  2  0
 10  1  1  0
 10 11  1  0
 12  5  1  0
 13  8  1  0
M  END
$$$$

     RDKit          3D

  8  9  0  0  0  0  0  0  0  0999 V2000
   35.5860   38.7270   30.5330 C   0  0  0  0  0  0  0  0  0  0  0  0
   35.7190   36.8870   32.1160 N   0  0  0  0  0  0  0  0  0  0  0  0
   36.8210   38.6030   31.1350 N   0  0  0  0  0  0  0  0  0  0  0  0
   34.8700   37.6880   31.2410 C   0  0  0  0  0  0  0  0  0  0  0  0
   37.1490   37.4820   31.6160 C   0  0  0  0  0  0  0  0  0  0  0  0
   37.8300   39.2840   30.6940 C   0  0  0  0  0  0  0  0  0  0  0  0
   36.9520   39.7540   31.2200 N   0  0  0  0  0  0  0  0  0  0  0  0
   38.9610   38.8560   30.3990 C   0  0  0  0  0  0  0  0  0  0  0  0
  1  3  1  0
  1  4  1  0
  3  7  1  0
  3  5  1  0
  4  2  1  0
  5  2  1  0
  6  3  1  0
  6  7  1  0
  8  6  2  0
M  END
$$$$

     RDKit          3D

  8  7  0  0  0  0  0  0  0  0999 V2000
   36.9700   37.6520   30.2310 C   0  0  0  0  0  0  0  0  0  0  0  0
   35.3570   35.8780   33.5320 C   0  0  0  0  0  0  0  0  0  0  0  0
   36.7600   39.1580   29.5280 C   0  0  0  0  0  0  0  0  0  0  0  0
   33.9820   35.7190   33.2270 O   0  0  0  0  0  0  0  0  0  0  0  0
   38.0020   39.5550   28.6560 C   0  0  0  0  0  0  0  0  0  0  0  0
   35.7870   37.4410   31.2280 C   0  0  0  0  0  0  0  0  0  0  0  0
   37.6550   40.8870   27.9750 C   0  0  0  0  0  0  0  0  0  0  0  0
   36.0170   36.3500   32.2080 C   0  0  0  0  0  0  0  0  0  0  0  0
  1  6  1  0
  3  1  1  0
  4  2  1  0
  5  3  1  0
  6  8  1  0
  7  5  1  0
  8  2  1  0
M  END
$$$$

     RDKit          3D

 32 32  0  0  0  0  0  0  0  0999 V2000
   37.9970   43.6180   26.1980 C   0  0  0  0  0  0  0  0  0  0  0  0
   38.3840   40.2390   28.9450 C   0  0  0  0  0  0  0  0  0  0  0  0
   34.4350   32.9420   34.8390 O   0  0  0  0  0  0  0  0  0  0  0  0
   36.9950   38.5540   30.3250 C   0  0  0  0  0  0  0  0  0  0  0  0
   35.8090   38.2700   31.2050 C   0  0  0  0  0  0  0  0  0  0  0  0
   35.7380   33.3010   35.3340 C   0  0  0  0  0  0  0  0  0  0  0  0
   37.6180   44.2180   24.8390 C   0  0  0  0  0  0  0  0  0  0  0  0
   38.7230   44.6470   27.0260 C   0  0  0  0  0  0  0  0  0  0  0  0
   36.8670   42.2520   28.2450 C   0  0  0  0  0  0  0  0  0  0  0  0
   35.7800   36.0230   32.3020 N   0  0  0  0  0  0  0  0  0  0  0  0
   36.7450   43.0550   26.9120 C   0  0  0  0  0  0  0  0  0  0  0  0
   35.6910   31.2870   36.9140 C   0  0  0  0  0  0  0  0  0  0  0  0
   39.1660   42.7150   29.1800 C   0  0  0  0  0  0  0  0  0  0  0  0
   38.0030   31.3150   33.9810 O   0  0  0  0  0  0  0  0  0  0  0  0
   36.6610   33.8330   33.0040 C   0  0  0  0  0  0  0  0  0  0  0  0
   36.5230   34.3100   34.4810 C   0  0  0  0  0  0  0  0  0  0  0  0
   38.6020   44.9410   24.1640 N   0  0  0  0  0  0  0  0  0  0  0  0
   38.2650   41.7570   28.5180 C   0  0  0  0  0  0  0  0  0  0  0  0
   36.4420   32.0370   35.8660 C   0  0  0  0  0  0  0  0  0  0  0  0
   34.9680   36.0920   33.5740 C   0  0  0  0  0  0  0  0  0  0  0  0
   38.5720   30.5410   36.7570 C   0  0  0  0  0  0  0  0  0  0  0  0
   37.3070   40.8100   31.1300 C   0  0  0  0  0  0  0  0  0  0  0  0
   40.0750   44.6310   24.3410 C   0  0  0  0  0  0  0  0  0  0  0  0
   38.0100   37.4300   30.1810 C   0  0  0  0  0  0  0  0  0  0  0  0
   38.1580   31.7100   35.5470 P   0  0  0  0  0  0  0  0  0  0  0  0
   35.8390   35.5870   34.5740 O   0  0  0  0  0  0  0  0  0  0  0  0
   35.3370   36.8500   31.1560 C   0  0  0  0  0  0  0  0  0  0  0  0
   38.7080   39.4170   27.6810 C   0  0  0  0  0  0  0  0  0  0  0  0
   39.7310   32.5830   35.3370 C   0  0  0  0  0  0  0  0  0  0  0  0
   35.6770   34.5680   32.1090 C   0  0  0  0  0  0  0  0  0  0  0  0
   35.6740   43.0970   26.4050 O   0  0  0  0  0  0  0  0  0  0  0  0
   37.1820   39.8250   29.8170 C   0  0  0  0  0  0  0  0  0  0  0  0
  1 11  1  0
  1  8  1  0
  2 28  1  0
  2 32  1  0
  4 24  1  0
  4  5  1  0
  6  3  1  0
  6 19  1  0
  7  1  1  0
  9 18  1  0
 10 20  1  0
 11  9  1  0
 14 25  2  0
 15 16  1  0
 16 26  1  0
 16  6  1  0
 17 23  1  0
 17  7  1  0
 18  2  1  0
 18 13  1  0
 19 12  1  0
 20 26  1  0
 25 19  1  0
 25 21  1  0
 27  5  1  0
 27 10  1  0
 29 25  1  0
 30 10  1  0
 30 15  1  0
 31 11  2  0
 32  4  1  0
 32 22  1  0
M  END
$$$$

     RDKit          3D

  7  6  0  0  0  0  0  0  0  0999 V2000
   40.7380   40.8260   29.1630 O   0  0  0  0  0  0  0  0  0  0  0  0
   38.2910   40.9150   28.7880 C   0  0  0  0  0  0  0  0  0  0  0  0
   39.5280   40.1540   29.0810 C   0  0  0  0  0  0  0  0  0  0  0  0
   37.5020   40.2810   27.6830 C   0  0  0  0  0  0  0  0  0  0  0  0
   36.2560   40.2840   27.7420 O   0  0  0  0  0  0  0  0  0  0  0  0
   38.8250   42.1130   28.2880 O   0  0  0  0  0  0  0  0  0  0  0  0
   38.0900   39.6720   26.7530 O   0  0  0  0  0  0  0  0  0  0  0  0
  2  6  1  0
  2  3  1  0
  3  1  1  0
  4  5  1  0
  4  2  1  0
  7  4  2  0
M  END
$$$$

     RDKit          3D

  8  7  0  0  0  0  0  0  0  0999 V2000
   35.6480   35.9400   34.5160 C   0  0  0  0  0  0  0  0  0  0  0  0
   38.1110   38.1750   34.7080 C   0  0  0  0  0  0  0  0  0  0  0  0
   38.3640   37.3680   32.4200 C   0  0  0  0  0  0  0  0  0  0  0  0
   36.1930   36.9700   36.0960 S   0  0  0  0  0  0  0  0  0  0  0  0
   36.1020   34.5210   35.1130 C   0  0  0  0  0  0  0  0  0  0  0  0
   37.3330   37.9370   35.9080 C   0  0  0  0  0  0  0  0  0  0  0  0
   37.9460   39.4410   34.3980 O   0  0  0  0  0  0  0  0  0  0  0  0
   37.9880   37.2750   33.7150 O   0  0  0  0  0  0  0  0  0  0  0  0
  1  5  1  0
  1  4  1  0
  2  7  1  0
  2  6  1  0
  3  8  1  0
  6  4  2  3
  8  2  1  0
M  END
$$$$

     RDKit          3D

  9  8  0  0  0  0  0  0  0  0999 V2000
   38.8030   40.7700   26.4860 C   0  0  0  0  0  0  0  0  0  0  0  0
   39.3030   43.7480   28.2090 C   0  0  0  0  0  0  0  0  0  0  0  0
   38.6390   38.6260   25.3100 C   0  0  0  0  0  0  0  0  0  0  0  0
   39.2350   39.2550   26.5370 C   0  0  0  0  0  0  0  0  0  0  0  0
   39.5090   41.5620   27.2250 C   0  0  0  0  0  0  0  0  0  0  0  0
   36.9450   42.6070   27.7800 N   0  0  0  0  0  0  0  0  0  0  0  0
   37.8100   43.3510   27.3020 C   0  0  0  0  0  0  0  0  0  0  0  0
   37.4710   40.8670   25.7170 C   0  0  0  0  0  0  0  0  0  0  0  0
   40.1260   42.9330   27.2350 C   0  0  0  0  0  0  0  0  0  0  0  0
  1  8  1  0
  1  4  1  0
  1  5  1  0
  3  4  1  0
  5  9  1  0
  7  6  2  0
  7  2  1  0
  9  2  1  0
M  END
$$$$

     RDKit          3D

 14 15  0  0  0  0  0  0  0  0999 V2000
   37.0210   39.6630   29.3240 C   0  0  0  0  0  0  0  0  0  0  0  0
   38.1460   38.2990   30.9650 C   0  0  0  0  0  0  0  0  0  0  0  0
   37.4380   36.6620   34.4620 C   0  0  0  0  0  0  0  0  0  0  0  0
   36.9050   37.7710   31.3650 C   0  0  0  0  0  0  0  0  0  0  0  0
   35.7920   39.3560   29.7680 C   0  0  0  0  0  0  0  0  0  0  0  0
   37.6910   35.5100   32.3740 C   0  0  0  0  0  0  0  0  0  0  0  0
   38.8100   34.6720   34.3000 O   0  0  0  0  0  0  0  0  0  0  0  0
   36.6910   36.6410   32.3110 C   0  0  0  0  0  0  0  0  0  0  0  0
   36.3260   36.5150   33.6300 O   0  0  0  0  0  0  0  0  0  0  0  0
   38.1930   39.1970   29.9690 C   0  0  0  0  0  0  0  0  0  0  0  0
   38.3890   35.8250   33.6350 C   0  0  0  0  0  0  0  0  0  0  0  0
   35.7190   38.2460   30.7200 C   0  0  0  0  0  0  0  0  0  0  0  0
   36.9500   36.0610   35.8120 C   0  0  0  0  0  0  0  0  0  0  0  0
   36.1030   40.7730   28.4680 S   0  0  0  0  0  0  0  0  0  0  0  0
  1  5  1  0
  1 10  1  0
  2  4  1  0
  3 13  1  0
  4 12  1  0
  4  8  1  0
  5 12  2  0
  6 11  1  0
  8  6  1  0
  8  9  1  0
  9  3  1  0
 10  2  2  0
 11  7  1  0
 11  3  1  0
 14  1  2  0
M  END
$$$$

     RDKit          3D

  6  5  0  0  0  0  0  0  0  0999 V2000
   34.5800   35.6580   33.9900 O   0  0  0  0  0  0  0  0  0  0  0  0
   34.2970   35.9980   32.8160 C   0  0  0  0  0  0  0  0  0  0  0  0
   36.4120   37.7740   30.2480 C   0  0  0  0  0  0  0  0  0  0  0  0
   35.9230   37.4060   31.6380 C   0  0  0  0  0  0  0  0  0  0  0  0
   33.2290   36.3980   32.3530 O   0  0  0  0  0  0  0  0  0  0  0  0
   35.5020   35.9520   31.8340 C   0  0  0  0  0  0  0  0  0  0  0  0
  2  1  1  0
  3  4  1  0
  4  6  1  0
  5  2  2  0
  6  2  1  0
M  END
$$$$

     RDKit          3D

  8  9  0  0  0  0  0  0  0  0999 V2000
   35.5080   36.7910   32.8940 O   0  0  0  0  0  0  0  0  0  0  0  0
   34.9900   37.3020   31.6110 C   0  0  0  0  0  0  0  0  0  0  0  0
   33.8760   38.1130   31.3370 O   0  0  0  0  0  0  0  0  0  0  0  0
   38.0010   35.1890   33.0410 C   0  0  0  0  0  0  0  0  0  0  0  0
   35.7960   37.0310   30.4470 C   0  0  0  0  0  0  0  0  0  0  0  0
   36.6170   35.5130   33.0400 C   0  0  0  0  0  0  0  0  0  0  0  0
   37.6290   35.7490   31.8310 C   0  0  0  0  0  0  0  0  0  0  0  0
   37.1750   36.4380   30.5710 C   0  0  0  0  0  0  0  0  0  0  0  0
  1  6  1  0
  2  1  1  0
  3  2  2  0
  5  8  1  0
  5  2  1  0
  6  4  1  0
  7  8  1  0
  7  6  1  0
  7  4  1  0
M  END
$$$$
