
     RDKit          3D

 13 14  0  0  0  0  0  0  0  0999 V2000
   34.5680   36.1510   31.2910 C   0  0  0  0  0  0  0  0  0  0  0  0
   35.9370   35.8410   30.9910 C   0  0  0  0  0  0  0  0  0  0  0  0
   38.0130   41.6880   28.3640 C   0  0  0  0  0  0  0  0  0  0  0  0
   34.0290   37.4500   30.5780 C   0  0  0  0  0  0  0  0  0  0  0  0
   34.8320   38.0510   29.5980 C   0  0  0  0  0  0  0  0  0  0  0  0
   39.3170   41.6550   27.8430 C   0  0  0  0  0  0  0  0  0  0  0  0
   36.8280   37.9480   28.1690 N   0  0  0  0  0  0  0  0  0  0  0  0
   39.5040   40.4280   27.3740 N   0  0  0  0  0  0  0  0  0  0  0  0
   37.3760   40.4700   28.1410 C   0  0  0  0  0  0  0  0  0  0  0  0
   36.7770   36.7180   30.1600 C   0  0  0  0  0  0  0  0  0  0  0  0
   36.2330   37.6230   29.2730 C   0  0  0  0  0  0  0  0  0  0  0  0
   38.1510   38.2290   27.5870 C   0  0  0  0  0  0  0  0  0  0  0  0
   38.3750   39.6710   27.6270 C   0  0  0  0  0  0  0  0  0  0  0  0
  2  1  1  0
  4  1  1  0
  5  4  1  0
  6  3  2  0
  7 11  1  0
  8 13  2  0
  8  6  1  0
  9  3  1  0
 10  2  1  0
 11  5  2  0
 11 10  1  0
 12 13  1  0
 12  7  1  0
 13  9  1  0
M  END
$$$$

     RDKit          3D

 11 11  0  0  0  0  0  0  0  0999 V2000
   37.1720   34.9780   29.9300 C   0  0  0  0  0  0  0  0  0  0  0  0
   37.2860   33.5720   30.1660 C   0  0  0  0  0  0  0  0  0  0  0  0
   33.7550   35.4240   31.1880 N   0  0  0  0  0  0  0  0  0  0  0  0
   35.0080   34.7260   30.9130 C   0  0  0  0  0  0  0  0  0  0  0  0
   34.0140   32.6850   31.7630 C   0  0  0  0  0  0  0  0  0  0  0  0
   35.9920   35.3690   30.2390 C   0  0  0  0  0  0  0  0  0  0  0  0
   33.6050   33.1930   33.1710 C   0  0  0  0  0  0  0  0  0  0  0  0
   33.5650   34.0220   33.9520 O   0  0  0  0  0  0  0  0  0  0  0  0
   34.0580   31.3090   31.9460 O   0  0  0  0  0  0  0  0  0  0  0  0
   35.1500   33.3790   31.1680 C   0  0  0  0  0  0  0  0  0  0  0  0
   36.3990   32.8490   30.8640 N   0  0  0  0  0  0  0  0  0  0  0  0
  1  2  2  0
  1  6  1  0
  2 11  1  0
  4 10  1  0
  4  3  1  0
  5  9  1  0
  5  7  1  0
  6  4  2  0
  7  8  2  0
 10  5  1  0
 11 10  2  0
M  END
$$$$

     RDKit          3D

 11 10  0  0  0  0  0  0  0  0999 V2000
   36.5830   41.0830   27.5080 C   0  0  0  0  0  0  0  0  0  0  0  0
   35.9180   38.7000   25.9620 O   0  0  0  0  0  0  0  0  0  0  0  0
   37.3370   38.6820   27.0730 N   0  0  0  0  0  0  0  0  0  0  0  0
   37.6720   39.9740   27.2740 C   0  0  0  0  0  0  0  0  0  0  0  0
   39.1920   43.4650   28.4270 O   0  0  0  0  0  0  0  0  0  0  0  0
   38.1420   40.3400   25.7390 C   0  0  0  0  0  0  0  0  0  0  0  0
   39.2030   39.4600   25.5210 N   0  0  0  0  0  0  0  0  0  0  0  0
   38.4720   42.8060   27.4960 C   0  0  0  0  0  0  0  0  0  0  0  0
   37.5400   37.6210   27.6400 O   0  0  0  0  0  0  0  0  0  0  0  0
   37.2530   42.8900   29.2660 O   0  0  0  0  0  0  0  0  0  0  0  0
   37.2850   42.2580   28.1890 C   0  0  0  0  0  0  0  0  0  0  0  0
  1 11  1  0
  2  3  2  0
  3  4  1  0
  3  9  2  0
  4  6  1  0
  4  1  1  0
  7  6  1  0
  8 11  1  0
  8  5  1  0
 11 10  2  0
M  END
$$$$

     RDKit          3D

 11 11  0  0  0  0  0  0  0  0999 V2000
   38.1910   41.7140   27.9370 C   0  0  0  0  0  0  0  0  0  0  0  0
   35.8160   42.5740   27.8720 O   0  0  0  0  0  0  0  0  0  0  0  0
   35.7380   39.4650   24.9260 O   0  0  0  0  0  0  0  0  0  0  0  0
   39.9920   40.2150   27.6730 O   0  0  0  0  0  0  0  0  0  0  0  0
   36.6880   40.6250   26.6080 C   0  0  0  0  0  0  0  0  0  0  0  0
   35.5340   40.5390   25.8340 C   0  0  0  0  0  0  0  0  0  0  0  0
   37.6730   39.7680   26.8470 O   0  0  0  0  0  0  0  0  0  0  0  0
   36.9610   41.8000   27.4040 C   0  0  0  0  0  0  0  0  0  0  0  0
   38.5180   42.5340   28.9440 O   0  0  0  0  0  0  0  0  0  0  0  0
   38.7440   40.5170   27.5460 C   0  0  0  0  0  0  0  0  0  0  0  0
   35.1040   43.6450   27.1160 C   0  0  0  0  0  0  0  0  0  0  0  0
  1  9  1  0
  3  6  1  0
  5  6  1  0
  5  7  1  0
  5  8  1  0
  7 10  1  0
  8  2  1  0
  8  1  1  0
 10  4  2  0
 10  1  1  0
 11  2  1  0
M  END
$$$$

     RDKit          3D

 10 10  0  0  0  0  0  0  0  0999 V2000
   38.7430   39.7230   27.3830 S   0  0  0  0  0  0  0  0  0  0  0  0
   34.7600   40.1600   26.2470 C   0  0  0  0  0  0  0  0  0  0  0  0
   36.1450   40.0370   26.8080 C   0  0  0  0  0  0  0  0  0  0  0  0
   38.8980   38.4660   26.6930 O   0  0  0  0  0  0  0  0  0  0  0  0
   39.9720   40.5440   27.3490 O   0  0  0  0  0  0  0  0  0  0  0  0
   37.5380   40.5550   26.7430 O   0  0  0  0  0  0  0  0  0  0  0  0
   38.0070   39.6070   28.9740 C   0  0  0  0  0  0  0  0  0  0  0  0
   37.3240   37.2560   29.0330 C   0  0  0  0  0  0  0  0  0  0  0  0
   36.0630   38.6890   27.4950 C   0  0  0  0  0  0  0  0  0  0  0  0
   36.8470   38.7280   28.7600 C   0  0  0  0  0  0  0  0  0  0  0  0
  1  7  1  0
  3  2  1  0
  3  9  1  0
  4  1  1  0
  5  1  1  0
  6  3  1  0
  6  1  1  0
  9 10  1  0
 10  7  1  0
 10  8  1  0
M  END
$$$$

     RDKit          3D

 23 24  0  0  0  0  0  0  0  0999 V2000
   38.3950   40.0320   25.3630 O   0  0  0  0  0  0  0  0  0  0  0  0
   35.6330   38.7930   29.1010 C   0  0  0  0  0  0  0  0  0  0  0  0
   36.0070   43.0930   27.3330 O   0  0  0  0  0  0  0  0  0  0  0  0
   36.5670   35.0270   31.8710 C   0  0  0  0  0  0  0  0  0  0  0  0
   35.2500   35.4000   31.7530 C   0  0  0  0  0  0  0  0  0  0  0  0
   38.4530   40.2800   26.6290 C   0  0  0  0  0  0  0  0  0  0  0  0
   36.1600   39.8030   28.0670 C   0  0  0  0  0  0  0  0  0  0  0  0
   36.3790   36.8200   30.4970 C   0  0  0  0  0  0  0  0  0  0  0  0
   38.4990   43.1260   26.1280 C   0  0  0  0  0  0  0  0  0  0  0  0
   37.8170   37.9520   27.2740 C   0  0  0  0  0  0  0  0  0  0  0  0
   38.5220   32.4390   34.3730 N   0  0  0  0  0  0  0  0  0  0  0  0
   39.7460   39.9760   27.3230 N   0  0  0  0  0  0  0  0  0  0  0  0
   36.5980   37.7100   29.4020 C   0  0  0  0  0  0  0  0  0  0  0  0
   37.5590   37.1930   28.4650 C   0  0  0  0  0  0  0  0  0  0  0  0
   37.2270   35.9300   31.0910 C   0  0  0  0  0  0  0  0  0  0  0  0
   36.5550   41.9790   26.6380 C   0  0  0  0  0  0  0  0  0  0  0  0
   37.2390   39.3360   27.1700 C   0  0  0  0  0  0  0  0  0  0  0  0
   35.1520   36.6330   31.0000 O   0  0  0  0  0  0  0  0  0  0  0  0
   38.0700   41.8220   26.8200 C   0  0  0  0  0  0  0  0  0  0  0  0
   37.1400   33.7840   32.7080 C   0  0  0  0  0  0  0  0  0  0  0  0
   38.4770   33.4340   33.4860 C   0  0  0  0  0  0  0  0  0  0  0  0
   38.3350   44.2910   26.0850 N   0  0  0  0  0  0  0  0  0  0  0  0
   39.3800   34.3310   33.5190 O   0  0  0  0  0  0  0  0  0  0  0  0
  2 13  1  0
  4 20  1  0
  5  4  2  0
  6  1  1  0
  6 19  1  0
  6 12  1  0
  7  2  1  0
  8 18  1  0
  8 15  2  0
 10 14  1  0
 13  8  1  0
 14 13  2  0
 15  4  1  0
 16 19  1  0
 16  3  1  0
 17  6  1  0
 17 10  1  0
 17  7  1  0
 18  5  1  0
 19  9  1  0
 20 21  1  0
 21 23  2  0
 21 11  1  0
 22  9  2  0
M  END
$$$$

     RDKit          3D

  8  8  0  0  0  0  0  0  0  0999 V2000
   36.0340   39.1680   26.9620 O   0  0  0  0  0  0  0  0  0  0  0  0
   35.9460   41.4620   26.4560 C   0  0  0  0  0  0  0  0  0  0  0  0
   36.8790   41.3440   25.3010 C   0  0  0  0  0  0  0  0  0  0  0  0
   37.2070   42.0070   26.6580 O   0  0  0  0  0  0  0  0  0  0  0  0
   34.7550   41.3150   26.8200 O   0  0  0  0  0  0  0  0  0  0  0  0
   37.3480   39.4400   26.7320 C   0  0  0  0  0  0  0  0  0  0  0  0
   37.7460   40.0580   25.4700 C   0  0  0  0  0  0  0  0  0  0  0  0
   38.7150   39.8260   24.8350 O   0  0  0  0  0  0  0  0  0  0  0  0
  2  4  1  0
  2  5  2  0
  3  7  1  0
  3  2  1  0
  3  4  1  0
  6  1  1  0
  7  6  1  0
  8  7  2  0
M  END
$$$$

     RDKit          3D

  9  8  0  0  0  0  0  0  0  0999 V2000
   38.3570   40.3970   28.8490 N   0  0  0  0  0  0  0  0  0  0  0  0
   37.1450   40.3560   27.8530 C   0  0  0  0  0  0  0  0  0  0  0  0
   39.0040   42.8440   27.3190 O   0  0  0  0  0  0  0  0  0  0  0  0
   37.8660   42.5750   27.7460 C   0  0  0  0  0  0  0  0  0  0  0  0
   37.3600   42.9000   28.8260 O   0  0  0  0  0  0  0  0  0  0  0  0
   36.2270   38.9700   26.1080 C   0  0  0  0  0  0  0  0  0  0  0  0
   37.1320   41.5160   26.9070 C   0  0  0  0  0  0  0  0  0  0  0  0
   38.7770   38.8780   26.9820 C   0  0  0  0  0  0  0  0  0  0  0  0
   37.2700   39.0230   27.2070 C   0  0  0  0  0  0  0  0  0  0  0  0
  2  1  1  0
  3  4  2  0
  4  5  1  0
  6  9  1  0
  7  4  1  0
  7  2  1  0
  8  9  1  0
  9  2  1  0
M  END
$$$$

     RDKit          3D

 13 12  0  0  0  0  0  0  0  0999 V2000
   37.8770   41.3470   26.3290 C   0  0  0  0  0  0  0  0  0  0  0  0
   39.9510   41.1210   27.6340 O   0  0  0  0  0  0  0  0  0  0  0  0
   39.6590   43.1040   26.4670 C   0  0  0  0  0  0  0  0  0  0  0  0
   38.8140   39.1680   25.8020 N   0  0  0  0  0  0  0  0  0  0  0  0
   35.6940   37.8010   29.4450 O   0  0  0  0  0  0  0  0  0  0  0  0
   35.6900   39.3370   29.1540 C   0  0  0  0  0  0  0  0  0  0  0  0
   33.9450   40.1050   27.4890 O   0  0  0  0  0  0  0  0  0  0  0  0
   36.3070   40.3820   28.2080 C   0  0  0  0  0  0  0  0  0  0  0  0
   37.6770   39.8620   26.2540 C   0  0  0  0  0  0  0  0  0  0  0  0
   34.2540   39.2640   28.7260 C   0  0  0  0  0  0  0  0  0  0  0  0
   36.8630   39.4210   27.2860 C   0  0  0  0  0  0  0  0  0  0  0  0
   39.1000   41.8000   27.1390 C   0  0  0  0  0  0  0  0  0  0  0  0
   36.0650   38.3980   27.1300 O   0  0  0  0  0  0  0  0  0  0  0  0
  1 12  1  0
  3 12  1  0
  6  5  1  0
  7 10  1  0
  8  6  1  0
  9  4  1  0
  9  1  1  0
  9 11  1  0
 10  6  1  0
 11 13  1  0
 11  8  1  0
 12  2  2  0
M  END
$$$$

     RDKit          3D

 20 22  0  0  0  0  0  0  0  0999 V2000
   32.4390   35.5040   31.3710 C   0  0  0  0  0  0  0  0  0  0  0  0
   40.1600   38.7410   30.8000 O   0  0  0  0  0  0  0  0  0  0  0  0
   36.8790   38.4920   28.4050 O   0  0  0  0  0  0  0  0  0  0  0  0
   36.9550   36.0730   30.2630 C   0  0  0  0  0  0  0  0  0  0  0  0
   37.8190   37.8750   27.6670 C   0  0  0  0  0  0  0  0  0  0  0  0
   37.7960   38.4640   30.7750 C   0  0  0  0  0  0  0  0  0  0  0  0
   39.1340   39.2630   27.3890 S   0  0  0  0  0  0  0  0  0  0  0  0
   39.0840   38.7980   29.9920 C   0  0  0  0  0  0  0  0  0  0  0  0
   35.3790   37.7200   30.3820 N   0  0  0  0  0  0  0  0  0  0  0  0
   32.8650   34.5100   32.2010 N   0  0  0  0  0  0  0  0  0  0  0  0
   39.8280   40.7650   26.8600 C   0  0  0  0  0  0  0  0  0  0  0  0
   35.5710   34.4640   31.9100 C   0  0  0  0  0  0  0  0  0  0  0  0
   36.7240   32.9880   32.6320 S   0  0  0  0  0  0  0  0  0  0  0  0
   36.7840   37.6230   29.8960 C   0  0  0  0  0  0  0  0  0  0  0  0
   34.1640   34.1710   32.6250 C   0  0  0  0  0  0  0  0  0  0  0  0
   39.4000   38.6970   26.1730 O   0  0  0  0  0  0  0  0  0  0  0  0
   34.6480   36.6370   30.8460 C   0  0  0  0  0  0  0  0  0  0  0  0
   39.4060   39.5020   28.7190 N   0  0  0  0  0  0  0  0  0  0  0  0
   35.5540   35.7300   30.9960 C   0  0  0  0  0  0  0  0  0  0  0  0
   33.1600   36.7010   30.9240 C   0  0  0  0  0  0  0  0  0  0  0  0
  1 10  1  0
  3 14  1  0
  4 19  1  0
  5  3  1  0
  7 11  1  0
  7  5  1  0
  7 18  1  0
  8  6  1  0
  8  2  2  0
  9 17  1  0
 10 15  1  0
 12 15  2  0
 12 13  1  0
 14  4  1  0
 14  9  1  0
 14  6  1  0
 16  7  1  0
 17 20  1  0
 17 19  2  0
 18  8  1  0
 19 12  1  0
 20  1  2  0
M  END
$$$$

     RDKit          3D

 29 30  0  0  0  0  0  0  0  0999 V2000
   35.5010   37.8510   28.6770 C   0  0  0  0  0  0  0  0  0  0  0  0
   33.6000   34.6020   31.6960 C   0  0  0  0  0  0  0  0  0  0  0  0
   35.3680   38.8340   28.0670 N   0  0  0  0  0  0  0  0  0  0  0  0
   38.7040   40.5430   27.8670 C   0  0  0  0  0  0  0  0  0  0  0  0
   37.2990   39.2390   26.1980 C   0  0  0  0  0  0  0  0  0  0  0  0
   35.5030   31.1450   32.9150 O   0  0  0  0  0  0  0  0  0  0  0  0
   36.1870   39.6630   27.2090 C   0  0  0  0  0  0  0  0  0  0  0  0
   41.3220   46.5630   29.3140 C   0  0  0  0  0  0  0  0  0  0  0  0
   40.4120   46.7450   26.1830 O   0  0  0  0  0  0  0  0  0  0  0  0
   34.4660   37.6470   28.3150 O   0  0  0  0  0  0  0  0  0  0  0  0
   34.6820   35.0470   30.6530 C   0  0  0  0  0  0  0  0  0  0  0  0
   39.3300   45.5010   27.9680 C   0  0  0  0  0  0  0  0  0  0  0  0
   39.9930   46.3960   29.0290 C   0  0  0  0  0  0  0  0  0  0  0  0
   40.9070   44.5690   26.3650 O   0  0  0  0  0  0  0  0  0  0  0  0
   39.1650   44.1690   28.6290 C   0  0  0  0  0  0  0  0  0  0  0  0
   35.1230   40.3220   26.3390 C   0  0  0  0  0  0  0  0  0  0  0  0
   40.1860   42.1610   27.8240 C   0  0  0  0  0  0  0  0  0  0  0  0
   39.1280   42.7370   28.2900 C   0  0  0  0  0  0  0  0  0  0  0  0
   36.6830   36.5330   30.3480 C   0  0  0  0  0  0  0  0  0  0  0  0
   35.8110   35.7360   31.2330 C   0  0  0  0  0  0  0  0  0  0  0  0
   40.3470   45.5940   26.7830 C   0  0  0  0  0  0  0  0  0  0  0  0
   33.9740   33.3810   32.2920 O   0  0  0  0  0  0  0  0  0  0  0  0
   38.0010   41.7850   28.5280 C   0  0  0  0  0  0  0  0  0  0  0  0
   36.4120   35.2770   32.4260 N   0  0  0  0  0  0  0  0  0  0  0  0
   34.2960   31.0310   32.4660 C   0  0  0  0  0  0  0  0  0  0  0  0
   33.5610   32.1280   31.6640 C   0  0  0  0  0  0  0  0  0  0  0  0
   36.1970   37.0120   29.3190 O   0  0  0  0  0  0  0  0  0  0  0  0
   38.5620   40.1060   26.3840 C   0  0  0  0  0  0  0  0  0  0  0  0
   40.1420   40.8200   28.0200 N   0  0  0  0  0  0  0  0  0  0  0  0
  1 27  1  0
  2 22  1  0
  3 10  1  0
  3  1  1  0
  4 28  1  0
  4 29  1  0
  4 23  1  0
  5 28  1  0
  5  7  1  0
  7 16  1  0
  7  3  1  0
  9 21  2  0
 10  1  1  0
 11 20  1  0
 11  2  1  0
 12 15  1  0
 12 13  1  0
 13  8  2  0
 14 21  1  0
 17 29  1  0
 17 18  1  0
 18 23  1  0
 18 15  1  0
 19 20  1  0
 20 24  1  0
 21 12  1  0
 25  6  1  0
 26 22  1  0
 26 25  1  0
 27 19  1  0
M  END
$$$$

     RDKit          3D

  9 10  0  0  0  0  0  0  0  0999 V2000
   36.1690   41.5170   26.4840 O   0  0  0  0  0  0  0  0  0  0  0  0
   38.1320   39.6230   29.1740 C   0  0  0  0  0  0  0  0  0  0  0  0
   37.7900   39.9310   26.6880 C   0  0  0  0  0  0  0  0  0  0  0  0
   37.1580   41.0940   27.3860 C   0  0  0  0  0  0  0  0  0  0  0  0
   37.3240   39.8820   25.3670 O   0  0  0  0  0  0  0  0  0  0  0  0
   36.2170   41.6630   23.9850 C   0  0  0  0  0  0  0  0  0  0  0  0
   37.0920   39.7240   28.0280 C   0  0  0  0  0  0  0  0  0  0  0  0
   36.2950   40.7000   25.0790 C   0  0  0  0  0  0  0  0  0  0  0  0
   35.6890   39.4540   28.5300 C   0  0  0  0  0  0  0  0  0  0  0  0
  3  5  1  0
  3  4  1  0
  3  7  1  0
  4  1  1  0
  4  7  1  0
  7  9  1  0
  7  2  1  0
  8  6  1  0
  8  5  1  0
  8  1  1  0
M  END
$$$$

     RDKit          3D

 13 13  0  0  0  0  0  0  0  0999 V2000
   34.2820   32.8850   31.3710 O   0  0  0  0  0  0  0  0  0  0  0  0
   35.3410   33.5530   30.7390 C   0  0  0  0  0  0  0  0  0  0  0  0
   33.8230   31.0500   30.1190 C   0  0  0  0  0  0  0  0  0  0  0  0
   35.3540   35.8570   29.7330 S   0  0  0  0  0  0  0  0  0  0  0  0
   30.7250   33.8600   28.8080 C   0  0  0  0  0  0  0  0  0  0  0  0
   34.1030   30.6100   31.4800 O   0  0  0  0  0  0  0  0  0  0  0  0
   34.7940   34.4470   29.7420 C   0  0  0  0  0  0  0  0  0  0  0  0
   33.5530   34.4580   29.1160 C   0  0  0  0  0  0  0  0  0  0  0  0
   36.3290   32.6610   30.2460 O   0  0  0  0  0  0  0  0  0  0  0  0
   31.7670   32.8640   28.5950 O   0  0  0  0  0  0  0  0  0  0  0  0
   31.8320   32.0310   30.8040 O   0  0  0  0  0  0  0  0  0  0  0  0
   33.2000   32.4090   30.5380 C   0  0  0  0  0  0  0  0  0  0  0  0
   32.8910   33.3050   29.2960 C   0  0  0  0  0  0  0  0  0  0  0  0
  2  9  1  0
  2  1  1  0
  3 12  1  0
  3  6  1  0
  4  7  2  0
  7  2  1  0
  8 13  1  0
  8  7  1  0
 10  5  1  0
 12 11  1  0
 12  1  1  0
 13 10  1  0
 13 12  1  0
M  END
$$$$

     RDKit          3D

 27 30  0  0  0  0  0  0  0  0999 V2000
   35.3410   33.6270   29.5310 C   0  0  0  0  0  0  0  0  0  0  0  0
   35.5550   32.9460   31.8280 C   0  0  0  0  0  0  0  0  0  0  0  0
   37.4560   38.7070   25.1600 O   0  0  0  0  0  0  0  0  0  0  0  0
   33.7100   31.0190   33.8930 O   0  0  0  0  0  0  0  0  0  0  0  0
   36.4780   41.8990   24.8180 C   0  0  0  0  0  0  0  0  0  0  0  0
   36.3370   34.8070   30.1240 C   0  0  0  0  0  0  0  0  0  0  0  0
   36.2150   40.2210   26.3870 N   0  0  0  0  0  0  0  0  0  0  0  0
   38.2010   36.0400   28.8870 C   0  0  0  0  0  0  0  0  0  0  0  0
   35.7610   41.5670   26.1010 C   0  0  0  0  0  0  0  0  0  0  0  0
   33.3240   31.7530   31.5570 N   0  0  0  0  0  0  0  0  0  0  0  0
   38.9710   40.6590   22.3900 C   0  0  0  0  0  0  0  0  0  0  0  0
   34.2370   31.4720   30.4260 C   0  0  0  0  0  0  0  0  0  0  0  0
   35.9690   37.3230   28.7710 C   0  0  0  0  0  0  0  0  0  0  0  0
   36.4920   38.2550   27.9690 C   0  0  0  0  0  0  0  0  0  0  0  0
   33.7780   38.3060   28.5630 C   0  0  0  0  0  0  0  0  0  0  0  0
   34.3540   39.2920   27.7600 C   0  0  0  0  0  0  0  0  0  0  0  0
   36.7630   36.0470   29.2760 C   0  0  0  0  0  0  0  0  0  0  0  0
   33.9950   31.4530   32.7030 C   0  0  0  0  0  0  0  0  0  0  0  0
   37.1300   39.8450   25.4310 C   0  0  0  0  0  0  0  0  0  0  0  0
   35.6800   39.2560   27.3820 C   0  0  0  0  0  0  0  0  0  0  0  0
   37.9500   41.2070   23.3320 N   0  0  0  0  0  0  0  0  0  0  0  0
   37.7020   42.5520   23.0620 N   0  0  0  0  0  0  0  0  0  0  0  0
   35.3110   32.5820   30.7010 C   0  0  0  0  0  0  0  0  0  0  0  0
   34.6230   37.3290   29.1160 C   0  0  0  0  0  0  0  0  0  0  0  0
   37.4400   40.9340   24.5350 C   0  0  0  0  0  0  0  0  0  0  0  0
   35.4910   31.7100   32.6350 C   0  0  0  0  0  0  0  0  0  0  0  0
   36.5460   42.8360   23.7750 C   0  0  0  0  0  0  0  0  0  0  0  0
  1  6  1  0
  2 26  1  0
  3 19  2  0
  5  9  1  0
  7 20  1  0
  9  7  1  0
 10 18  1  0
 11 21  1  0
 12 23  1  0
 12 10  1  0
 13 24  1  0
 13 17  1  0
 14 13  2  0
 15 24  2  0
 16 15  1  0
 17  8  1  0
 17  6  1  0
 18  4  2  0
 19  7  1  0
 20 16  2  0
 20 14  1  0
 21 25  1  0
 22 21  1  0
 22 27  1  0
 23  1  1  0
 23  2  1  0
 25  5  2  0
 25 19  1  0
 26 18  1  0
 27  5  1  0
M  END
$$$$

     RDKit          3D

 14 13  0  0  0  0  0  0  0  0999 V2000
   37.6140   41.9370   26.3940 N   0  0  0  0  0  0  0  0  0  0  0  0
   35.9040   38.4220   29.1480 C   0  0  0  0  0  0  0  0  0  0  0  0
   34.0840   35.8420   30.5490 C   0  0  0  0  0  0  0  0  0  0  0  0
   37.8190   38.5050   27.6580 O   0  0  0  0  0  0  0  0  0  0  0  0
   35.3550   36.6080   30.9320 C   0  0  0  0  0  0  0  0  0  0  0  0
   32.2980   34.4380   31.4870 N   0  0  0  0  0  0  0  0  0  0  0  0
   36.0470   37.2090   29.7960 O   0  0  0  0  0  0  0  0  0  0  0  0
   37.3360   40.5940   28.8140 C   0  0  0  0  0  0  0  0  0  0  0  0
   35.7580   42.2610   27.9400 N   0  0  0  0  0  0  0  0  0  0  0  0
   33.8850   34.4760   31.2460 C   0  0  0  0  0  0  0  0  0  0  0  0
   37.2300   41.7570   27.8240 C   0  0  0  0  0  0  0  0  0  0  0  0
   36.9540   39.1620   28.4850 C   0  0  0  0  0  0  0  0  0  0  0  0
   38.4340   39.5620   25.6060 O   0  0  0  0  0  0  0  0  0  0  0  0
   38.6600   39.0520   26.7320 C   0  0  0  0  0  0  0  0  0  0  0  0
  1 11  2  0
  2  7  1  0
  3  5  1  0
  3 10  1  0
  4 12  1  0
  7  5  1  0
 10  6  1  0
 11  9  1  0
 11  8  1  0
 12  8  1  0
 12  2  1  0
 13 14  2  0
 14  4  1  0
M  END
$$$$

     RDKit          3D

 12 12  0  0  0  0  0  0  0  0999 V2000
   38.6420   37.9170   27.8590 P   0  0  0  0  0  0  0  0  0  0  0  0
   37.6310   44.0290   27.9730 C   0  0  0  0  0  0  0  0  0  0  0  0
   36.9470   38.5190   27.8420 C   0  0  0  0  0  0  0  0  0  0  0  0
   39.7380   38.9620   27.5900 O   0  0  0  0  0  0  0  0  0  0  0  0
   36.7640   42.6430   26.2360 C   0  0  0  0  0  0  0  0  0  0  0  0
   38.9540   36.8420   26.8660 O   0  0  0  0  0  0  0  0  0  0  0  0
   37.7400   42.0280   26.6410 C   0  0  0  0  0  0  0  0  0  0  0  0
   38.3660   43.0900   27.5090 C   0  0  0  0  0  0  0  0  0  0  0  0
   36.4220   43.3990   27.4150 C   0  0  0  0  0  0  0  0  0  0  0  0
   36.7600   39.7470   26.9860 C   0  0  0  0  0  0  0  0  0  0  0  0
   38.7270   37.2930   29.2580 O   0  0  0  0  0  0  0  0  0  0  0  0
   37.7120   40.8010   27.4680 C   0  0  0  0  0  0  0  0  0  0  0  0
  1 11  1  0
  3  1  1  0
  4  1  1  0
  5  7  1  0
  5  9  1  0
  6  1  2  0
  7 12  1  0
  7  8  1  0
  8  2  1  0
  9  2  1  0
 10 12  1  0
 10  3  1  0
M  END
$$$$

     RDKit          3D

 10 10  0  0  0  0  0  0  0  0999 V2000
   36.5280   41.3750   24.4280 N   0  0  0  0  0  0  0  0  0  0  0  0
   36.7190   41.6390   27.0530 C   0  0  0  0  0  0  0  0  0  0  0  0
   38.7390   39.9470   24.6580 C   0  0  0  0  0  0  0  0  0  0  0  0
   37.5560   43.3930   28.1120 C   0  0  0  0  0  0  0  0  0  0  0  0
   37.2120   40.2730   24.9800 S   0  0  0  0  0  0  0  0  0  0  0  0
   36.3070   43.4820   27.8050 O   0  0  0  0  0  0  0  0  0  0  0  0
   36.8600   38.8150   24.7420 O   0  0  0  0  0  0  0  0  0  0  0  0
   36.5060   40.4890   26.3450 N   0  0  0  0  0  0  0  0  0  0  0  0
   39.3600   38.8550   25.2010 O   0  0  0  0  0  0  0  0  0  0  0  0
   36.8830   42.7380   26.8910 C   0  0  0  0  0  0  0  0  0  0  0  0
  3  5  1  0
  3  9  1  0
  5  1  1  0
  5  8  1  0
  6  4  1  0
  7  5  1  0
  8  2  1  0
 10  2  1  0
 10  6  1  0
 10  4  1  0
M  END
$$$$

     RDKit          3D

 37 40  0  0  0  0  0  0  0  0999 V2000
   36.7670   32.1550   28.8490 C   0  0  0  0  0  0  0  0  0  0  0  0
   36.0190   38.1680   28.8830 C   0  0  0  0  0  0  0  0  0  0  0  0
   33.0050   34.3400   32.5410 C   0  0  0  0  0  0  0  0  0  0  0  0
   36.3150   39.4850   28.3520 C   0  0  0  0  0  0  0  0  0  0  0  0
   37.2790   28.6310   29.8130 C   0  0  0  0  0  0  0  0  0  0  0  0
   32.9500   32.8520   32.4080 C   0  0  0  0  0  0  0  0  0  0  0  0
   36.5900   35.2680   29.7020 O   0  0  0  0  0  0  0  0  0  0  0  0
   38.7890   42.1500   29.3660 O   0  0  0  0  0  0  0  0  0  0  0  0
   38.8230   45.1180   27.5410 C   0  0  0  0  0  0  0  0  0  0  0  0
   36.7550   29.9660   29.9320 N   0  0  0  0  0  0  0  0  0  0  0  0
   34.6980   36.6120   30.3040 C   0  0  0  0  0  0  0  0  0  0  0  0
   32.7420   38.7740   30.3510 O   0  0  0  0  0  0  0  0  0  0  0  0
   34.9300   37.8900   29.6640 C   0  0  0  0  0  0  0  0  0  0  0  0
   37.7440   43.9210   29.0490 N   0  0  0  0  0  0  0  0  0  0  0  0
   33.1230   32.5300   30.9110 C   0  0  0  0  0  0  0  0  0  0  0  0
   34.5790   34.3520   30.4050 C   0  0  0  0  0  0  0  0  0  0  0  0
   34.2740   40.2510   29.4970 C   0  0  0  0  0  0  0  0  0  0  0  0
   34.6720   32.8860   30.7410 C   0  0  0  0  0  0  0  0  0  0  0  0
   35.5740   40.5530   28.9800 C   0  0  0  0  0  0  0  0  0  0  0  0
   36.1740   27.7830   30.2540 O   0  0  0  0  0  0  0  0  0  0  0  0
   39.3660   44.0510   26.8510 O   0  0  0  0  0  0  0  0  0  0  0  0
   33.6630   36.3360   31.1500 N   0  0  0  0  0  0  0  0  0  0  0  0
   38.0960   38.4600   26.8920 C   0  0  0  0  0  0  0  0  0  0  0  0
   38.9750   43.7300   25.5440 C   0  0  0  0  0  0  0  0  0  0  0  0
   35.4200   35.4580   30.0930 N   0  0  0  0  0  0  0  0  0  0  0  0
   37.9430   42.0890   27.4390 C   0  0  0  0  0  0  0  0  0  0  0  0
   37.4240   39.7180   27.3030 C   0  0  0  0  0  0  0  0  0  0  0  0
   33.7120   35.0220   31.4000 N   0  0  0  0  0  0  0  0  0  0  0  0
   33.9360   38.8940   29.8610 C   0  0  0  0  0  0  0  0  0  0  0  0
   39.0780   44.6650   28.9980 C   0  0  0  0  0  0  0  0  0  0  0  0
   38.2850   40.9370   26.7810 C   0  0  0  0  0  0  0  0  0  0  0  0
   38.8500   41.1770   25.3860 C   0  0  0  0  0  0  0  0  0  0  0  0
   36.4580   30.9330   31.0350 C   0  0  0  0  0  0  0  0  0  0  0  0
   38.0140   42.7100   28.4600 C   0  0  0  0  0  0  0  0  0  0  0  0
   39.1830   44.9890   24.8730 C   0  0  0  0  0  0  0  0  0  0  0  0
   39.4920   42.4790   24.8520 C   0  0  0  0  0  0  0  0  0  0  0  0
   36.0300   32.2330   30.2460 C   0  0  0  0  0  0  0  0  0  0  0  0
  2 13  1  0
  4  2  2  0
  4 19  1  0
  5 10  1  0
  5 20  1  0
  6  3  1  0
  7 25  1  0
  9 30  1  0
 10 33  1  0
 11 13  1  0
 11 22  1  0
 13 29  2  0
 15  6  1  0
 16 25  1  0
 16 18  1  0
 16 28  1  0
 17 29  1  0
 18 37  1  0
 18 15  1  0
 19 17  2  0
 21  9  1  0
 22 28  1  0
 24 35  1  0
 24 21  1  0
 25 11  1  0
 26 34  1  0
 27 23  1  0
 27  4  1  0
 28  3  1  0
 29 12  1  0
 30 14  1  0
 31 27  1  0
 31 26  1  0
 32 31  1  0
 34 14  1  0
 34  8  2  0
 36 32  1  0
 36 24  1  0
 37  1  1  0
 37 33  1  0
M  END
$$$$

     RDKit          3D

  4  3  0  0  0  0  0  0  0  0999 V2000
   38.2890   38.7320   26.5870 C   0  0  0  0  0  0  0  0  0  0  0  0
   37.9710   40.2830   24.6720 C   0  0  0  0  0  0  0  0  0  0  0  0
   38.3390   38.0770   27.7920 N   0  0  0  0  0  0  0  0  0  0  0  0
   37.8340   40.1520   26.2440 C   0  0  0  0  0  0  0  0  0  0  0  0
  1  3  1  0
  2  4  1  0
  4  1  1  0
M  END
$$$$

     RDKit          3D

 28 30  0  0  0  0  0  0  0  0999 V2000
   37.3290   32.1690   29.3780 O   0  0  0  0  0  0  0  0  0  0  0  0
   35.7770   34.1600   33.3230 O   0  0  0  0  0  0  0  0  0  0  0  0
   36.1930   39.0810   30.0390 C   0  0  0  0  0  0  0  0  0  0  0  0
   38.1660   41.3890   26.9630 C   0  0  0  0  0  0  0  0  0  0  0  0
   35.8890   37.8080   29.3410 C   0  0  0  0  0  0  0  0  0  0  0  0
   34.9880   31.9950   33.2600 O   0  0  0  0  0  0  0  0  0  0  0  0
   36.3240   40.1530   29.1220 N   0  0  0  0  0  0  0  0  0  0  0  0
   37.6610   40.0030   27.1950 C   0  0  0  0  0  0  0  0  0  0  0  0
   35.8030   32.9870   31.2520 C   0  0  0  0  0  0  0  0  0  0  0  0
   36.3920   41.3680   29.7320 C   0  0  0  0  0  0  0  0  0  0  0  0
   35.3840   31.7130   31.8640 C   0  0  0  0  0  0  0  0  0  0  0  0
   36.3720   35.3420   31.4910 O   0  0  0  0  0  0  0  0  0  0  0  0
   37.1350   42.4600   29.1490 C   0  0  0  0  0  0  0  0  0  0  0  0
   36.6440   35.5330   30.2850 C   0  0  0  0  0  0  0  0  0  0  0  0
   38.7370   41.3300   25.5530 C   0  0  0  0  0  0  0  0  0  0  0  0
   38.4020   42.1240   28.3430 C   0  0  0  0  0  0  0  0  0  0  0  0
   36.7600   36.8570   30.2060 C   0  0  0  0  0  0  0  0  0  0  0  0
   39.9090   40.6070   25.4250 N   0  0  0  0  0  0  0  0  0  0  0  0
   36.4620   33.1180   29.8890 C   0  0  0  0  0  0  0  0  0  0  0  0
   35.9870   30.6360   31.0090 O   0  0  0  0  0  0  0  0  0  0  0  0
   36.8580   34.5220   29.4050 C   0  0  0  0  0  0  0  0  0  0  0  0
   36.2100   39.9260   27.6940 C   0  0  0  0  0  0  0  0  0  0  0  0
   35.8110   34.1720   32.0340 C   0  0  0  0  0  0  0  0  0  0  0  0
   39.8250   43.4020   24.6100 O   0  0  0  0  0  0  0  0  0  0  0  0
   36.9530   43.1170   25.7470 C   0  0  0  0  0  0  0  0  0  0  0  0
   39.0940   43.5830   25.7640 C   0  0  0  0  0  0  0  0  0  0  0  0
   38.3830   42.4210   25.9920 N   0  0  0  0  0  0  0  0  0  0  0  0
   37.4970   34.6990   28.2740 O   0  0  0  0  0  0  0  0  0  0  0  0
  4  8  1  0
  4 16  1  0
  5  3  1  0
  5 17  1  0
  7 10  1  0
  7  3  1  0
  8 22  1  0
  9 11  1  0
  9 23  1  0
 11  6  1  0
 12 23  1  0
 13 10  1  0
 14 12  1  0
 15 18  1  0
 15 27  1  0
 15  4  1  0
 16 13  1  0
 17 14  1  0
 19  1  1  0
 19  9  1  0
 20 11  2  0
 21 19  1  0
 21 14  2  0
 22  7  1  0
 23  2  2  0
 24 26  1  0
 25 27  1  0
 26 27  1  0
 27  4  1  0
 28 21  1  0
M  END
$$$$
