
     RDKit          3D

 19 21  0  0  0  0  0  0  0  0999 V2000
   37.5440   31.7100   30.3880 C   0  0  0  0  0  0  0  0  0  0  0  0
   38.3620   38.1940   29.1420 C   0  0  0  0  0  0  0  0  0  0  0  0
   39.7630   38.5420   26.8170 Cl  0  0  0  0  0  0  0  0  0  0  0  0
   33.1000   33.9720   32.1640 C   0  0  0  0  0  0  0  0  0  0  0  0
   35.7330   35.3100   30.1860 C   0  0  0  0  0  0  0  0  0  0  0  0
   37.3350   37.6070   29.8590 C   0  0  0  0  0  0  0  0  0  0  0  0
   33.2590   36.1880   30.9710 C   0  0  0  0  0  0  0  0  0  0  0  0
   34.5290   35.7630   30.5680 C   0  0  0  0  0  0  0  0  0  0  0  0
   37.6300   37.0370   27.1410 C   0  0  0  0  0  0  0  0  0  0  0  0
   36.6480   34.2400   29.8730 N   0  0  0  0  0  0  0  0  0  0  0  0
   36.5900   36.6550   29.2170 C   0  0  0  0  0  0  0  0  0  0  0  0
   38.4940   37.9290   27.7870 C   0  0  0  0  0  0  0  0  0  0  0  0
   35.4050   33.0390   31.6690 O   0  0  0  0  0  0  0  0  0  0  0  0
   36.6050   36.3970   27.9180 C   0  0  0  0  0  0  0  0  0  0  0  0
   32.4560   35.2480   31.6610 C   0  0  0  0  0  0  0  0  0  0  0  0
   34.3380   33.8290   31.6310 C   0  0  0  0  0  0  0  0  0  0  0  0
   36.8950   32.8800   29.6090 C   0  0  0  0  0  0  0  0  0  0  0  0
   36.8410   32.7180   28.1660 N   0  0  0  0  0  0  0  0  0  0  0  0
   34.9670   34.5000   31.0320 C   0  0  0  0  0  0  0  0  0  0  0  0
  2  6  1  0
  3 12  1  0
  5 10  1  0
  5  8  1  0
  5 19  1  0
  7 15  2  0
  8  7  1  0
  8 19  2  0
  9 12  1  0
  9 14  2  0
 11  6  2  0
 11  5  1  0
 12  2  2  0
 14 11  1  0
 15  4  1  0
 16 13  1  0
 16  4  2  0
 17 10  1  0
 17  1  1  0
 18 17  2  0
 19 16  1  0
M  END
$$$$

     RDKit          3D

  7  7  0  0  0  0  0  0  0  0999 V2000
   38.8490   36.1820   24.2070 O   0  0  0  0  0  0  0  0  0  0  0  0
   38.7760   36.3300   25.1850 C   0  0  0  0  0  0  0  0  0  0  0  0
   37.2130   34.9520   27.1370 C   0  0  0  0  0  0  0  0  0  0  0  0
   38.3440   35.2430   24.8870 O   0  0  0  0  0  0  0  0  0  0  0  0
   36.5800   34.0760   27.5880 N   0  0  0  0  0  0  0  0  0  0  0  0
   38.1870   36.0300   27.5150 C   0  0  0  0  0  0  0  0  0  0  0  0
   38.8440   36.8940   26.5080 C   0  0  0  0  0  0  0  0  0  0  0  0
  1  4  1  0
  1  2  1  0
  2  7  1  0
  3  6  1  0
  3  5  2  0
  4  2  1  0
  7  6  1  0
M  END
$$$$

     RDKit          3D

 19 20  0  0  0  0  0  0  0  0999 V2000
   38.6400   36.3340   22.9410 O   0  0  0  0  0  0  0  0  0  0  0  0
   33.8680   36.8000   29.0080 O   0  0  0  0  0  0  0  0  0  0  0  0
   35.3800   39.1440   28.0590 O   0  0  0  0  0  0  0  0  0  0  0  0
   37.9670   34.1550   28.8680 C   0  0  0  0  0  0  0  0  0  0  0  0
   36.4440   34.2890   31.0950 C   0  0  0  0  0  0  0  0  0  0  0  0
   39.0800   38.6460   23.7000 O   0  0  0  0  0  0  0  0  0  0  0  0
   37.4660   36.0140   27.6040 N   0  0  0  0  0  0  0  0  0  0  0  0
   35.6460   35.2350   30.5480 C   0  0  0  0  0  0  0  0  0  0  0  0
   37.6090   37.5230   27.4630 C   0  0  0  0  0  0  0  0  0  0  0  0
   38.0560   37.8470   26.0330 C   0  0  0  0  0  0  0  0  0  0  0  0
   35.9330   35.7140   29.2790 C   0  0  0  0  0  0  0  0  0  0  0  0
   35.1760   36.6980   28.5690 C   0  0  0  0  0  0  0  0  0  0  0  0
   37.6600   38.9370   26.8660 C   0  0  0  0  0  0  0  0  0  0  0  0
   35.2210   38.1690   27.7740 C   0  0  0  0  0  0  0  0  0  0  0  0
   38.1730   33.1370   29.8710 C   0  0  0  0  0  0  0  0  0  0  0  0
   37.2780   33.3320   31.0390 C   0  0  0  0  0  0  0  0  0  0  0  0
   38.8420   36.8030   25.2920 C   0  0  0  0  0  0  0  0  0  0  0  0
   38.9000   37.4330   23.9360 C   0  0  0  0  0  0  0  0  0  0  0  0
   37.0780   35.1460   28.7600 C   0  0  0  0  0  0  0  0  0  0  0  0
  1 18  2  0
  4 15  1  0
  6 18  1  0
  7 19  1  0
  8  5  1  0
  9  7  1  0
 10 17  1  0
 10 13  1  0
 10  9  1  0
 11  8  2  0
 12  2  1  0
 12 11  1  0
 13  9  1  0
 14  3  2  0
 14 12  1  0
 15 16  1  0
 16  5  1  0
 18 17  1  0
 19  4  2  0
 19 11  1  0
M  END
$$$$

     RDKit          3D

 22 24  0  0  0  0  0  0  0  0999 V2000
   38.3540   40.2050   27.1260 C   0  0  0  0  0  0  0  0  0  0  0  0
   35.9910   31.9990   31.9530 C   0  0  0  0  0  0  0  0  0  0  0  0
   37.3100   32.6470   29.9060 C   0  0  0  0  0  0  0  0  0  0  0  0
   33.0930   33.4530   32.5130 O   0  0  0  0  0  0  0  0  0  0  0  0
   37.3360   32.2910   31.3790 C   0  0  0  0  0  0  0  0  0  0  0  0
   37.9990   39.0350   26.5620 N   0  0  0  0  0  0  0  0  0  0  0  0
   37.2240   36.9950   29.3040 N   0  0  0  0  0  0  0  0  0  0  0  0
   37.3990   34.7330   28.6610 C   0  0  0  0  0  0  0  0  0  0  0  0
   34.3540   33.5450   31.9120 C   0  0  0  0  0  0  0  0  0  0  0  0
   38.4830   31.9290   32.1260 O   0  0  0  0  0  0  0  0  0  0  0  0
   37.4880   36.6100   27.0470 N   0  0  0  0  0  0  0  0  0  0  0  0
   36.9170   33.9340   29.6540 C   0  0  0  0  0  0  0  0  0  0  0  0
   38.0760   39.3420   29.3060 N   0  0  0  0  0  0  0  0  0  0  0  0
   37.6720   37.9620   27.2890 C   0  0  0  0  0  0  0  0  0  0  0  0
   39.3400   34.2340   27.7650 O   0  0  0  0  0  0  0  0  0  0  0  0
   37.6330   38.1480   28.7440 C   0  0  0  0  0  0  0  0  0  0  0  0
   35.3010   32.7300   32.8670 C   0  0  0  0  0  0  0  0  0  0  0  0
   38.1270   33.5870   27.7740 C   0  0  0  0  0  0  0  0  0  0  0  0
   38.2840   32.4470   28.8650 O   0  0  0  0  0  0  0  0  0  0  0  0
   34.4870   34.7910   31.1120 N   0  0  0  0  0  0  0  0  0  0  0  0
   37.3030   36.0200   28.3050 N   0  0  0  0  0  0  0  0  0  0  0  0
   38.3920   40.3590   28.4880 C   0  0  0  0  0  0  0  0  0  0  0  0
  1 22  1  0
  2 17  1  0
  3  5  1  0
  5  2  1  0
  5 10  1  0
  6  1  1  0
  6 14  2  0
  8 21  1  0
  8 12  1  0
  9  4  2  0
  9 17  1  0
 11 14  1  0
 11 21  1  0
 12  3  1  0
 14 16  1  0
 16  7  2  0
 16 13  1  0
 18 15  1  0
 18  8  1  0
 18 19  1  0
 19  3  1  0
 20  9  1  0
 21  7  1  0
 22 13  2  0
M  END
$$$$

     RDKit          3D

 14 15  0  0  0  0  0  0  0  0999 V2000
   36.9610   37.7950   31.5010 O   0  0  0  0  0  0  0  0  0  0  0  0
   37.3790   38.0860   28.1810 C   0  0  0  0  0  0  0  0  0  0  0  0
   36.8260   35.0270   29.9500 C   0  0  0  0  0  0  0  0  0  0  0  0
   35.9370   36.0750   29.3830 C   0  0  0  0  0  0  0  0  0  0  0  0
   38.1260   32.4890   31.0430 O   0  0  0  0  0  0  0  0  0  0  0  0
   35.5620   35.8320   28.0740 O   0  0  0  0  0  0  0  0  0  0  0  0
   34.7450   36.1020   30.1620 O   0  0  0  0  0  0  0  0  0  0  0  0
   38.6400   36.2260   30.8900 N   0  0  0  0  0  0  0  0  0  0  0  0
   38.3240   33.7300   31.4930 C   0  0  0  0  0  0  0  0  0  0  0  0
   38.0440   38.6350   31.1740 O   0  0  0  0  0  0  0  0  0  0  0  0
   36.9310   37.2420   29.3610 C   0  0  0  0  0  0  0  0  0  0  0  0
   38.9320   34.0130   32.7570 O   0  0  0  0  0  0  0  0  0  0  0  0
   38.2350   34.8710   30.4820 C   0  0  0  0  0  0  0  0  0  0  0  0
   37.7960   37.3620   30.5220 C   0  0  0  0  0  0  0  0  0  0  0  0
  3 13  1  0
  4  3  1  0
  4  7  1  0
  5  9  2  0
  6  4  1  0
  9 12  1  0
 10  1  1  0
 11  2  1  0
 11  4  1  0
 11 14  1  0
 13  8  1  0
 13  9  1  0
 14  8  1  0
 14 10  1  0
 14  1  1  0
M  END
$$$$

     RDKit          3D

 24 24  0  0  0  0  0  0  0  0999 V2000
   39.4720   36.0840   23.7010 O   0  0  0  0  0  0  0  0  0  0  0  0
   36.4200   36.9130   27.0420 O   0  0  0  0  0  0  0  0  0  0  0  0
   33.6700   35.0350   31.1800 C   0  0  0  0  0  0  0  0  0  0  0  0
   40.2950   36.5600   24.8260 C   0  0  0  0  0  0  0  0  0  0  0  0
   38.8590   35.4110   26.5870 O   0  0  0  0  0  0  0  0  0  0  0  0
   36.2380   38.8280   25.7960 O   0  0  0  0  0  0  0  0  0  0  0  0
   35.2090   35.1560   29.4280 C   0  0  0  0  0  0  0  0  0  0  0  0
   34.8160   36.6750   29.5640 C   0  0  0  0  0  0  0  0  0  0  0  0
   35.5010   32.8450   28.9000 C   0  0  0  0  0  0  0  0  0  0  0  0
   34.6110   34.2890   30.2640 C   0  0  0  0  0  0  0  0  0  0  0  0
   38.7460   36.2410   27.7030 C   0  0  0  0  0  0  0  0  0  0  0  0
   33.4680   32.0740   30.3690 C   0  0  0  0  0  0  0  0  0  0  0  0
   36.8420   37.8310   26.0860 C   0  0  0  0  0  0  0  0  0  0  0  0
   33.8820   30.6550   30.0160 C   0  0  0  0  0  0  0  0  0  0  0  0
   38.0840   37.5380   25.2820 C   0  0  0  0  0  0  0  0  0  0  0  0
   36.0070   34.2040   28.5210 C   0  0  0  0  0  0  0  0  0  0  0  0
   36.0710   37.3880   30.0060 C   0  0  0  0  0  0  0  0  0  0  0  0
   37.4000   36.4530   28.0300 C   0  0  0  0  0  0  0  0  0  0  0  0
   36.3280   38.1300   31.1870 O   0  0  0  0  0  0  0  0  0  0  0  0
   33.1580   35.8100   32.0350 N   0  0  0  0  0  0  0  0  0  0  0  0
   34.5480   33.0090   29.8590 C   0  0  0  0  0  0  0  0  0  0  0  0
   34.5460   30.5570   28.6890 N   0  0  0  0  0  0  0  0  0  0  0  0
   39.5160   37.4890   25.6830 C   0  0  0  0  0  0  0  0  0  0  0  0
   37.2880   37.1420   29.2870 N   0  0  0  0  0  0  0  0  0  0  0  0
  1  4  1  0
  2 18  1  0
  3 20  1  0
  4 23  1  0
  5 11  1  0
  6 13  2  0
  7  8  1  0
  7 10  1  0
  8 17  1  0
  9 21  1  0
 10  3  1  0
 13  2  1  0
 14 12  1  0
 15 23  1  0
 15 13  1  0
 16  9  1  0
 16  7  1  0
 17 19  2  0
 18 11  1  0
 18 24  1  0
 21 10  1  0
 21 12  1  0
 22 14  1  0
 24 17  1  0
M  END
$$$$

     RDKit          3D

 12 12  0  0  0  0  0  0  0  0999 V2000
   37.5760   36.2270   27.7380 C   0  0  0  0  0  0  0  0  0  0  0  0
   35.5240   37.1180   28.4310 C   0  0  0  0  0  0  0  0  0  0  0  0
   38.1450   34.5930   31.6960 N   0  0  0  0  0  0  0  0  0  0  0  0
   36.5000   37.0380   27.4650 C   0  0  0  0  0  0  0  0  0  0  0  0
   36.8570   37.1130   24.9790 C   0  0  0  0  0  0  0  0  0  0  0  0
   35.7300   36.4780   29.6740 C   0  0  0  0  0  0  0  0  0  0  0  0
   35.1370   37.0240   30.6970 O   0  0  0  0  0  0  0  0  0  0  0  0
   36.6710   35.5540   29.9200 C   0  0  0  0  0  0  0  0  0  0  0  0
   36.3440   37.8420   26.2130 C   0  0  0  0  0  0  0  0  0  0  0  0
   36.8480   34.9530   31.2510 C   0  0  0  0  0  0  0  0  0  0  0  0
   38.3720   37.3820   25.0030 C   0  0  0  0  0  0  0  0  0  0  0  0
   37.6270   35.4350   28.9000 C   0  0  0  0  0  0  0  0  0  0  0  0
  1 12  1  0
  2  6  2  0
  4  1  2  0
  4  2  1  0
  5 11  1  0
  5  9  1  0
  6  8  1  0
  6  7  1  0
  8 10  1  0
  9  4  1  0
 10  3  1  0
 12  8  2  0
M  END
$$$$

     RDKit          3D

 29 31  0  0  0  0  0  0  0  0999 V2000
   37.4680   41.9870   24.0900 C   0  0  0  0  0  0  0  0  0  0  0  0
   34.0530   37.0570   28.1620 C   0  0  0  0  0  0  0  0  0  0  0  0
   37.8140   30.1990   28.3410 C   0  0  0  0  0  0  0  0  0  0  0  0
   33.2140   37.6180   29.3330 C   0  0  0  0  0  0  0  0  0  0  0  0
   36.5270   44.0500   22.5870 C   0  0  0  0  0  0  0  0  0  0  0  0
   36.6680   38.2050   27.1500 C   0  0  0  0  0  0  0  0  0  0  0  0
   38.4660   30.3090   31.3970 C   0  0  0  0  0  0  0  0  0  0  0  0
   38.2890   36.5300   26.8280 C   0  0  0  0  0  0  0  0  0  0  0  0
   35.5310   30.6910   28.1990 F   0  0  0  0  0  0  0  0  0  0  0  0
   37.4770   39.9180   25.5990 C   0  0  0  0  0  0  0  0  0  0  0  0
   36.7190   31.0820   28.6400 C   0  0  0  0  0  0  0  0  0  0  0  0
   37.4660   38.5970   26.0980 C   0  0  0  0  0  0  0  0  0  0  0  0
   38.8580   29.3630   30.4480 C   0  0  0  0  0  0  0  0  0  0  0  0
   36.6840   31.6080   29.9480 C   0  0  0  0  0  0  0  0  0  0  0  0
   34.0380   35.7460   30.6330 C   0  0  0  0  0  0  0  0  0  0  0  0
   38.5920   29.5040   29.1150 C   0  0  0  0  0  0  0  0  0  0  0  0
   35.8880   39.0860   27.6800 O   0  0  0  0  0  0  0  0  0  0  0  0
   33.2180   36.7860   30.5250 N   0  0  0  0  0  0  0  0  0  0  0  0
   38.0520   40.5800   24.5560 C   0  0  0  0  0  0  0  0  0  0  0  0
   36.1130   32.7690   29.9480 N   0  0  0  0  0  0  0  0  0  0  0  0
   35.2460   35.7330   29.9310 C   0  0  0  0  0  0  0  0  0  0  0  0
   35.4860   36.5080   28.5830 C   0  0  0  0  0  0  0  0  0  0  0  0
   37.4180   31.1490   31.0910 N   0  0  0  0  0  0  0  0  0  0  0  0
   36.9950   43.2180   23.3410 C   0  0  0  0  0  0  0  0  0  0  0  0
   36.8560   36.7910   27.5250 N   0  0  0  0  0  0  0  0  0  0  0  0
   39.1070   30.2900   32.4410 O   0  0  0  0  0  0  0  0  0  0  0  0
   36.3760   35.0370   30.5550 C   0  0  0  0  0  0  0  0  0  0  0  0
   38.4220   37.5390   25.6160 C   0  0  0  0  0  0  0  0  0  0  0  0
   37.0110   33.8910   30.1630 C   0  0  0  0  0  0  0  0  0  0  0  0
  1 19  1  0
  2 22  1  0
  2  4  1  0
  3 11  1  0
  3 16  2  0
  4 18  1  0
  5 24  3  0
  6 25  1  0
  6 17  2  0
  7 26  2  0
  8 25  1  0
 11  9  1  0
 11 14  1  0
 12 10  1  0
 12  6  1  0
 13  7  1  0
 14 23  2  0
 16 13  1  0
 18 15  1  0
 19 10  2  3
 20 14  1  0
 20 29  1  0
 21 27  1  0
 21 15  1  0
 22 21  2  0
 23  7  1  0
 24  1  1  0
 25 22  1  0
 28 12  1  0
 28  8  1  0
 29 27  1  0
M  END
$$$$

     RDKit          3D

  5  4  0  0  0  0  0  0  0  0999 V2000
   37.1380   36.5000   24.7640 C   0  0  0  0  0  0  0  0  0  0  0  0
   37.7440   36.0890   26.0670 C   0  0  0  0  0  0  0  0  0  0  0  0
   35.7260   36.4180   24.9330 O   0  0  0  0  0  0  0  0  0  0  0  0
   37.9020   35.0550   26.7390 N   0  0  0  0  0  0  0  0  0  0  0  0
   37.2210   37.9360   24.2970 C   0  0  0  0  0  0  0  0  0  0  0  0
  1  5  1  0
  1  3  1  0
  1  2  1  0
  2  4  2  0
M  END
$$$$

     RDKit          3D

 29 31  0  0  0  0  0  0  0  0999 V2000
   38.6760   40.3510   24.7740 C   0  0  0  0  0  0  0  0  0  0  0  0
   38.0160   32.4330   33.2900 C   0  0  0  0  0  0  0  0  0  0  0  0
   38.9870   39.7000   25.9800 N   0  0  0  0  0  0  0  0  0  0  0  0
   37.6440   34.7100   31.0530 C   0  0  0  0  0  0  0  0  0  0  0  0
   36.8510   32.6350   32.4530 C   0  0  0  0  0  0  0  0  0  0  0  0
   40.0900   31.7930   36.0560 N   0  0  0  0  0  0  0  0  0  0  0  0
   39.4010   31.5830   35.3900 C   0  0  0  0  0  0  0  0  0  0  0  0
   38.4130   35.7720   31.4130 C   0  0  0  0  0  0  0  0  0  0  0  0
   39.3150   41.5810   24.2330 O   0  0  0  0  0  0  0  0  0  0  0  0
   37.6430   39.9140   24.0260 C   0  0  0  0  0  0  0  0  0  0  0  0
   37.2410   30.2240   37.4600 O   0  0  0  0  0  0  0  0  0  0  0  0
   38.4390   38.9520   28.3010 C   0  0  0  0  0  0  0  0  0  0  0  0
   36.0480   31.6640   32.3010 O   0  0  0  0  0  0  0  0  0  0  0  0
   38.5940   38.2930   25.9460 C   0  0  0  0  0  0  0  0  0  0  0  0
   38.0460   35.0480   28.6850 C   0  0  0  0  0  0  0  0  0  0  0  0
   38.1820   31.8960   34.6750 N   0  0  0  0  0  0  0  0  0  0  0  0
   38.4430   36.3750   28.9940 C   0  0  0  0  0  0  0  0  0  0  0  0
   38.5640   36.2370   24.4050 C   0  0  0  0  0  0  0  0  0  0  0  0
   37.6700   34.1660   29.6780 C   0  0  0  0  0  0  0  0  0  0  0  0
   37.8670   29.7900   36.1590 C   0  0  0  0  0  0  0  0  0  0  0  0
   37.9710   34.5050   27.2430 C   0  0  0  0  0  0  0  0  0  0  0  0
   38.2740   37.7210   24.8180 C   0  0  0  0  0  0  0  0  0  0  0  0
   37.9510   39.2940   26.8310 C   0  0  0  0  0  0  0  0  0  0  0  0
   36.7970   33.8600   31.8860 C   0  0  0  0  0  0  0  0  0  0  0  0
   37.3760   30.8200   35.1760 C   0  0  0  0  0  0  0  0  0  0  0  0
   37.6250   38.5510   23.7320 C   0  0  0  0  0  0  0  0  0  0  0  0
   39.1570   40.2090   28.5970 O   0  0  0  0  0  0  0  0  0  0  0  0
   38.6160   37.3990   28.2180 C   0  0  0  0  0  0  0  0  0  0  0  0
   38.8170   36.6680   30.3710 C   0  0  0  0  0  0  0  0  0  0  0  0
  1  3  1  0
  2 16  1  0
  3 23  1  0
  4  8  1  0
  4 24  1  0
  5  2  1  0
  7  6  2  0
  9  1  2  0
 10  1  1  0
 12 27  1  0
 13  5  2  0
 14  3  1  0
 14 23  1  0
 15 17  2  0
 15 19  1  0
 16 25  1  0
 16  7  1  0
 17 29  1  0
 19  4  2  0
 20 11  1  0
 21 15  1  0
 22 18  1  0
 22 14  1  0
 23 12  1  0
 24  5  1  0
 25 20  1  0
 26 10  1  0
 26 22  1  0
 28 12  1  0
 28 17  1  0
 29  8  2  0
M  END
$$$$

     RDKit          3D

 15 15  0  0  0  0  0  0  0  0999 V2000
   36.6910   35.8740   29.0330 C   0  0  0  0  0  0  0  0  0  0  0  0
   36.7460   39.3020   26.2700 C   0  0  0  0  0  0  0  0  0  0  0  0
   38.8060   39.6820   21.6780 N   0  0  0  0  0  0  0  0  0  0  0  0
   38.8230   38.3030   25.4150 C   0  0  0  0  0  0  0  0  0  0  0  0
   35.9670   36.6460   30.1110 C   0  0  0  0  0  0  0  0  0  0  0  0
   38.9210   38.4750   23.8950 C   0  0  0  0  0  0  0  0  0  0  0  0
   37.2210   36.8790   26.6410 C   0  0  0  0  0  0  0  0  0  0  0  0
   37.7080   35.4090   25.9530 S   0  0  0  0  0  0  0  0  0  0  0  0
   38.7730   40.0530   23.2610 S   0  0  0  0  0  0  0  0  0  0  0  0
   37.9770   37.5050   23.2370 C   0  0  0  0  0  0  0  0  0  0  0  0
   39.4130   40.8900   20.9730 C   0  0  0  0  0  0  0  0  0  0  0  0
   38.4370   37.2560   21.8180 C   0  0  0  0  0  0  0  0  0  0  0  0
   37.4010   37.9790   25.8700 C   0  0  0  0  0  0  0  0  0  0  0  0
   39.1260   38.4580   21.3000 C   0  0  0  0  0  0  0  0  0  0  0  0
   36.6790   36.8960   27.9660 C   0  0  0  0  0  0  0  0  0  0  0  0
  1  5  1  0
  3  9  1  0
  4 13  1  0
  6  4  1  0
  7 15  1  0
  8  7  2  0
  9  6  1  0
 10  6  1  0
 11  3  1  0
 12 10  1  0
 13  2  1  0
 13  7  1  0
 14  3  1  0
 14 12  1  0
 15  1  1  0
M  END
$$$$

     RDKit          3D

 27 27  0  0  0  0  0  0  0  0999 V2000
   37.1190   38.1000   22.0060 C   0  0  0  0  0  0  0  0  0  0  0  0
   38.4670   37.7670   22.5360 C   0  0  0  0  0  0  0  0  0  0  0  0
   37.9700   33.5140   32.4420 C   0  0  0  0  0  0  0  0  0  0  0  0
   36.1220   32.3640   31.6330 O   0  0  0  0  0  0  0  0  0  0  0  0
   35.6300   39.1210   20.0200 C   0  0  0  0  0  0  0  0  0  0  0  0
   38.0860   37.8300   27.3760 C   0  0  0  0  0  0  0  0  0  0  0  0
   36.3260   40.0000   20.7670 C   0  0  0  0  0  0  0  0  0  0  0  0
   38.7660   36.9080   25.1080 C   0  0  0  0  0  0  0  0  0  0  0  0
   38.0490   32.4530   34.6330 O   0  0  0  0  0  0  0  0  0  0  0  0
   36.7740   36.2410   31.4160 O   0  0  0  0  0  0  0  0  0  0  0  0
   35.2780   33.6220   31.1050 C   0  0  0  0  0  0  0  0  0  0  0  0
   38.1470   39.1700   25.3950 O   0  0  0  0  0  0  0  0  0  0  0  0
   36.5650   36.8520   29.0600 N   0  0  0  0  0  0  0  0  0  0  0  0
   38.2530   38.0130   25.8740 C   0  0  0  0  0  0  0  0  0  0  0  0
   38.3520   36.7490   23.6550 C   0  0  0  0  0  0  0  0  0  0  0  0
   38.6700   31.4060   35.3730 C   0  0  0  0  0  0  0  0  0  0  0  0
   37.5310   36.6240   27.9910 C   0  0  0  0  0  0  0  0  0  0  0  0
   36.1220   35.7560   30.2380 S   0  0  0  0  0  0  0  0  0  0  0  0
   37.1800   33.1060   31.1970 C   0  0  0  0  0  0  0  0  0  0  0  0
   39.0590   35.6970   23.0770 O   0  0  0  0  0  0  0  0  0  0  0  0
   37.8480   32.2330   33.2520 C   0  0  0  0  0  0  0  0  0  0  0  0
   36.3570   41.5240   20.6750 C   0  0  0  0  0  0  0  0  0  0  0  0
   36.3390   33.5400   28.8670 C   0  0  0  0  0  0  0  0  0  0  0  0
   34.6250   35.8710   30.1880 O   0  0  0  0  0  0  0  0  0  0  0  0
   36.4300   34.0340   30.2950 C   0  0  0  0  0  0  0  0  0  0  0  0
   36.7150   39.5560   22.1700 C   0  0  0  0  0  0  0  0  0  0  0  0
   36.4660   31.7530   32.9000 C   0  0  0  0  0  0  0  0  0  0  0  0
  1 26  1  0
  1  2  1  0
  2 15  1  0
  3 21  1  0
  4 27  1  0
  5  7  2  0
  6 17  1  0
  7 26  1  0
  8 14  1  0
  9 16  1  0
 12 14  2  0
 13 18  1  0
 14  6  1  0
 15 20  1  0
 15  8  1  0
 17 13  2  3
 18 25  1  0
 18 10  2  0
 19 25  1  0
 19  4  1  0
 19  3  1  0
 21  9  1  0
 22  7  1  0
 23 25  1  0
 24 18  2  0
 25 11  1  0
 27 21  1  0
M  END
$$$$

     RDKit          3D

  7  7  0  0  0  0  0  0  0  0999 V2000
   34.9880   36.9120   28.0660 C   0  0  0  0  0  0  0  0  0  0  0  0
   36.6600   35.9600   29.6080 O   0  0  0  0  0  0  0  0  0  0  0  0
   37.2370   37.9960   27.8530 C   0  0  0  0  0  0  0  0  0  0  0  0
   36.3150   36.8620   27.4490 C   0  0  0  0  0  0  0  0  0  0  0  0
   36.0230   35.8190   28.3300 N   0  0  0  0  0  0  0  0  0  0  0  0
   36.6050   36.4720   26.0080 C   0  0  0  0  0  0  0  0  0  0  0  0
   35.4400   34.5960   28.1240 C   0  0  0  0  0  0  0  0  0  0  0  0
  1  5  1  0
  4  3  1  0
  4  1  1  0
  4  5  1  0
  5  2  1  0
  6  4  1  0
  7  5  1  0
M  END
$$$$

     RDKit          3D

  8  7  0  0  0  0  0  0  0  0999 V2000
   35.3220   37.4820   25.1430 O   0  0  0  0  0  0  0  0  0  0  0  0
   36.7260   35.5090   25.6380 O   0  0  0  0  0  0  0  0  0  0  0  0
   36.7730   37.4650   24.2080 C   0  0  0  0  0  0  0  0  0  0  0  0
   37.0310   37.1900   22.7110 C   0  0  0  0  0  0  0  0  0  0  0  0
   38.8170   36.5110   25.6160 C   0  0  0  0  0  0  0  0  0  0  0  0
   37.4540   36.4000   25.0590 C   0  0  0  0  0  0  0  0  0  0  0  0
   39.8890   36.7500   24.9250 O   0  0  0  0  0  0  0  0  0  0  0  0
   38.9770   36.3230   26.8860 O   0  0  0  0  0  0  0  0  0  0  0  0
  3  4  1  0
  3  6  1  0
  3  1  1  0
  5  8  1  0
  6  5  1  0
  6  2  1  0
  7  5  2  0
M  END
$$$$

     RDKit          3D

 25 27  0  0  0  0  0  0  0  0999 V2000
   35.4510   38.4600   27.2150 C   0  0  0  0  0  0  0  0  0  0  0  0
   36.8520   28.0720   32.9200 N   0  0  0  0  0  0  0  0  0  0  0  0
   37.9920   39.1130   25.6790 F   0  0  0  0  0  0  0  0  0  0  0  0
   34.4260   38.5660   28.2070 O   0  0  0  0  0  0  0  0  0  0  0  0
   36.1870   37.1290   27.5290 C   0  0  0  0  0  0  0  0  0  0  0  0
   37.2590   36.2870   26.8370 C   0  0  0  0  0  0  0  0  0  0  0  0
   36.1670   34.0100   29.8340 C   0  0  0  0  0  0  0  0  0  0  0  0
   35.1470   33.4700   30.8090 C   0  0  0  0  0  0  0  0  0  0  0  0
   35.8440   39.8510   26.6390 C   0  0  0  0  0  0  0  0  0  0  0  0
   38.7970   27.0840   31.7040 O   0  0  0  0  0  0  0  0  0  0  0  0
   35.5120   32.1130   31.4720 C   0  0  0  0  0  0  0  0  0  0  0  0
   37.3470   29.1320   31.9080 C   0  0  0  0  0  0  0  0  0  0  0  0
   37.7670   27.7160   32.0300 C   0  0  0  0  0  0  0  0  0  0  0  0
   37.3730   33.2420   29.5660 N   0  0  0  0  0  0  0  0  0  0  0  0
   37.7350   41.0340   25.8410 F   0  0  0  0  0  0  0  0  0  0  0  0
   37.3450   39.9680   26.4460 C   0  0  0  0  0  0  0  0  0  0  0  0
   37.3390   36.4070   25.3840 N   0  0  0  0  0  0  0  0  0  0  0  0
   37.9190   39.9990   27.6550 F   0  0  0  0  0  0  0  0  0  0  0  0
   36.6190   31.4310   30.9820 C   0  0  0  0  0  0  0  0  0  0  0  0
   36.4770   35.1260   28.8160 C   0  0  0  0  0  0  0  0  0  0  0  0
   36.4840   29.8180   30.9300 C   0  0  0  0  0  0  0  0  0  0  0  0
   35.5700   36.3480   28.6820 C   0  0  0  0  0  0  0  0  0  0  0  0
   37.6300   32.0080   30.1350 C   0  0  0  0  0  0  0  0  0  0  0  0
   37.6040   35.1820   27.8860 N   0  0  0  0  0  0  0  0  0  0  0  0
   34.3920   31.4760   32.3410 C   0  0  0  0  0  0  0  0  0  0  0  0
  1  4  1  0
  3 16  1  0
  5  1  1  0
  5 22  1  0
  6 17  1  0
  6  5  1  0
  6 24  1  0
  7  8  1  0
  8 11  2  0
  9  1  1  0
 10 13  2  0
 11 25  1  0
 12 21  1  0
 12 13  1  0
 12  2  1  0
 13  2  1  0
 14  7  2  0
 14 23  1  0
 15 16  1  0
 16  9  1  0
 16 18  1  0
 19 11  1  0
 20  7  1  0
 21 19  1  0
 22 20  1  0
 23 19  2  0
 24 20  1  0
M  END
$$$$

     RDKit          3D

 27 30  0  0  0  0  0  0  0  0999 V2000
   40.5340   41.4610   27.7070 C   0  0  0  0  0  0  0  0  0  0  0  0
   39.2030   35.7530   27.4550 C   0  0  0  0  0  0  0  0  0  0  0  0
   36.9350   32.9310   29.6250 C   0  0  0  0  0  0  0  0  0  0  0  0
   40.8130   41.2640   30.1120 N   0  0  0  0  0  0  0  0  0  0  0  0
   38.3420   38.0010   29.4100 C   0  0  0  0  0  0  0  0  0  0  0  0
   36.5410   35.5230   31.5510 C   0  0  0  0  0  0  0  0  0  0  0  0
   37.0610   37.6850   30.1240 C   0  0  0  0  0  0  0  0  0  0  0  0
   36.8210   34.2440   29.0600 N   0  0  0  0  0  0  0  0  0  0  0  0
   37.6280   32.1230   28.4870 C   0  0  0  0  0  0  0  0  0  0  0  0
   32.6290   34.1110   32.2340 C   0  0  0  0  0  0  0  0  0  0  0  0
   37.7890   40.2960   28.4390 O   0  0  0  0  0  0  0  0  0  0  0  0
   38.9380   40.1290   28.9130 C   0  0  0  0  0  0  0  0  0  0  0  0
   39.1260   42.6300   29.4580 C   0  0  0  0  0  0  0  0  0  0  0  0
   38.8070   35.2210   28.8040 C   0  0  0  0  0  0  0  0  0  0  0  0
   39.5680   37.8150   29.1760 N   0  0  0  0  0  0  0  0  0  0  0  0
   33.8680   35.0370   31.9150 C   0  0  0  0  0  0  0  0  0  0  0  0
   35.6580   30.9110   29.5040 C   0  0  0  0  0  0  0  0  0  0  0  0
   33.3640   36.4850   32.0510 C   0  0  0  0  0  0  0  0  0  0  0  0
   37.2320   35.4750   29.0360 C   0  0  0  0  0  0  0  0  0  0  0  0
   36.7950   36.2610   30.1710 N   0  0  0  0  0  0  0  0  0  0  0  0
   39.2800   38.9610   29.3920 C   0  0  0  0  0  0  0  0  0  0  0  0
   36.9250   31.3050   27.3570 C   0  0  0  0  0  0  0  0  0  0  0  0
   34.2280   34.7750   30.4660 C   0  0  0  0  0  0  0  0  0  0  0  0
   35.2420   35.0090   31.5150 C   0  0  0  0  0  0  0  0  0  0  0  0
   35.5260   32.3650   29.7780 C   0  0  0  0  0  0  0  0  0  0  0  0
   36.8230   30.8510   28.5380 C   0  0  0  0  0  0  0  0  0  0  0  0
   39.8520   41.3490   29.0320 C   0  0  0  0  0  0  0  0  0  0  0  0
  1 27  1  0
  2 14  1  0
  3  8  1  0
  3 25  1  0
  5  7  1  0
  7 20  1  0
  9 22  1  0
  9 26  1  0
  9  3  1  0
 11 12  2  0
 12 27  1  0
 15 21  1  0
 15  5  1  0
 16 18  1  0
 16 10  1  0
 17 25  1  0
 19 14  1  0
 19  8  1  0
 19 20  1  0
 20  6  1  0
 21 12  1  0
 21  5  1  0
 23 24  1  0
 23 16  1  0
 24  6  1  0
 24 16  1  0
 26 22  1  0
 26 17  1  0
 27 13  1  0
 27  4  1  0
M  END
$$$$

     RDKit          3D

 14 13  0  0  0  0  0  0  0  0999 V2000
   36.4490   37.8900   23.6990 C   0  0  0  0  0  0  0  0  0  0  0  0
   38.3410   32.3750   36.4560 C   0  0  0  0  0  0  0  0  0  0  0  0
   37.8580   35.2100   29.2950 C   0  0  0  0  0  0  0  0  0  0  0  0
   37.5080   34.1750   31.6440 C   0  0  0  0  0  0  0  0  0  0  0  0
   36.5830   37.8050   22.2490 C   0  0  0  0  0  0  0  0  0  0  0  0
   37.7290   32.7890   35.1170 C   0  0  0  0  0  0  0  0  0  0  0  0
   37.0730   34.1940   30.1460 C   0  0  0  0  0  0  0  0  0  0  0  0
   36.1330   39.1060   24.3230 N   0  0  0  0  0  0  0  0  0  0  0  0
   37.8970   33.2890   33.9570 C   0  0  0  0  0  0  0  0  0  0  0  0
   37.3270   36.1070   27.0000 C   0  0  0  0  0  0  0  0  0  0  0  0
   37.1340   36.9010   24.5500 C   0  0  0  0  0  0  0  0  0  0  0  0
   37.2400   33.0020   32.5950 C   0  0  0  0  0  0  0  0  0  0  0  0
   37.3330   35.2780   27.8970 C   0  0  0  0  0  0  0  0  0  0  0  0
   36.8460   36.9960   26.0710 C   0  0  0  0  0  0  0  0  0  0  0  0
  1  5  1  0
  1  8  1  0
  1 11  1  0
  3  7  1  0
  4 12  1  0
  6  2  1  0
  7  4  1  0
  9  6  1  0
 10 13  2  0
 11 14  1  0
 12  9  1  0
 13  3  1  0
 14 10  2  0
M  END
$$$$

     RDKit          3D

  8  8  0  0  0  0  0  0  0  0999 V2000
   38.1880   35.1080   26.3950 N   0  0  0  0  0  0  0  0  0  0  0  0
   37.3400   31.7870   27.3530 C   0  0  0  0  0  0  0  0  0  0  0  0
   37.5690   33.2450   27.1780 C   0  0  0  0  0  0  0  0  0  0  0  0
   38.4560   30.9180   27.8630 C   0  0  0  0  0  0  0  0  0  0  0  0
   36.6900   34.0640   27.7300 N   0  0  0  0  0  0  0  0  0  0  0  0
   36.9920   35.3230   27.1660 C   0  0  0  0  0  0  0  0  0  0  0  0
   38.4820   33.7510   26.3910 N   0  0  0  0  0  0  0  0  0  0  0  0
   37.9800   29.5440   28.2120 C   0  0  0  0  0  0  0  0  0  0  0  0
  1  6  2  0
  2  4  1  0
  3  2  1  0
  3  5  2  0
  4  8  1  0
  6  5  1  0
  7  1  1  0
  7  3  1  0
M  END
$$$$

     RDKit          3D

 12 12  0  0  0  0  0  0  0  0999 V2000
   36.9770   32.6130   30.5370 O   0  0  0  0  0  0  0  0  0  0  0  0
   37.7300   32.2540   28.1450 C   0  0  0  0  0  0  0  0  0  0  0  0
   35.9060   35.0540   28.7780 N   0  0  0  0  0  0  0  0  0  0  0  0
   37.4860   33.8140   30.0700 C   0  0  0  0  0  0  0  0  0  0  0  0
   34.0310   36.0020   29.9830 C   0  0  0  0  0  0  0  0  0  0  0  0
   37.1680   33.3580   27.7040 C   0  0  0  0  0  0  0  0  0  0  0  0
   33.5220   36.2500   31.2880 O   0  0  0  0  0  0  0  0  0  0  0  0
   37.2180   31.6010   29.3600 C   0  0  0  0  0  0  0  0  0  0  0  0
   35.4820   35.6060   29.9160 C   0  0  0  0  0  0  0  0  0  0  0  0
   33.9410   37.0350   29.0920 O   0  0  0  0  0  0  0  0  0  0  0  0
   36.8010   34.0420   28.8090 C   0  0  0  0  0  0  0  0  0  0  0  0
   36.2420   35.9430   30.8340 O   0  0  0  0  0  0  0  0  0  0  0  0
  2  8  1  0
  3 11  2  3
  3  9  1  0
  4  1  1  0
  5  7  1  0
  6  2  1  0
  6 11  1  0
  8  1  1  0
  9  5  1  0
  9 12  2  0
 10  5  1  0
 11  4  1  0
M  END
$$$$

     RDKit          3D

 33 35  0  0  0  0  0  0  0  0999 V2000
   34.4430   36.6060   30.2930 C   0  0  0  0  0  0  0  0  0  0  0  0
   33.8590   32.6830   32.8500 C   0  0  0  0  0  0  0  0  0  0  0  0
   38.7410   37.9730   23.4760 C   0  0  0  0  0  0  0  0  0  0  0  0
   36.9030   38.4160   24.5290 C   0  0  0  0  0  0  0  0  0  0  0  0
   38.9840   38.1400   25.8370 C   0  0  0  0  0  0  0  0  0  0  0  0
   34.3730   34.2460   31.1320 O   0  0  0  0  0  0  0  0  0  0  0  0
   30.7990   36.2260   30.3980 C   0  0  0  0  0  0  0  0  0  0  0  0
   38.3070   40.3500   24.0740 C   0  0  0  0  0  0  0  0  0  0  0  0
   37.0430   33.9750   30.4890 C   0  0  0  0  0  0  0  0  0  0  0  0
   38.8480   36.9570   29.9040 C   0  0  0  0  0  0  0  0  0  0  0  0
   38.5620   35.9290   22.7240 O   0  0  0  0  0  0  0  0  0  0  0  0
   31.6830   34.5460   31.8230 C   0  0  0  0  0  0  0  0  0  0  0  0
   38.1650   37.8640   24.8300 N   0  0  0  0  0  0  0  0  0  0  0  0
   37.6180   35.4780   28.6990 C   0  0  0  0  0  0  0  0  0  0  0  0
   33.0790   34.8130   31.3440 C   0  0  0  0  0  0  0  0  0  0  0  0
   32.8550   33.2200   33.6130 C   0  0  0  0  0  0  0  0  0  0  0  0
   36.7960   35.2960   29.8900 N   0  0  0  0  0  0  0  0  0  0  0  0
   35.8050   40.4450   23.8280 C   0  0  0  0  0  0  0  0  0  0  0  0
   39.4110   39.3520   23.6290 C   0  0  0  0  0  0  0  0  0  0  0  0
   38.9110   36.8020   30.8920 O   0  0  0  0  0  0  0  0  0  0  0  0
   34.8620   33.6730   32.2760 C   0  0  0  0  0  0  0  0  0  0  0  0
   32.0510   36.5760   30.1280 O   0  0  0  0  0  0  0  0  0  0  0  0
   35.5500   35.8900   29.9460 C   0  0  0  0  0  0  0  0  0  0  0  0
   29.8570   36.4710   29.5740 O   0  0  0  0  0  0  0  0  0  0  0  0
   38.3620   37.7380   27.0770 C   0  0  0  0  0  0  0  0  0  0  0  0
   37.7440   37.0830   22.7010 C   0  0  0  0  0  0  0  0  0  0  0  0
   38.6800   36.0580   28.7730 C   0  0  0  0  0  0  0  0  0  0  0  0
   33.1420   36.0490   30.5610 C   0  0  0  0  0  0  0  0  0  0  0  0
   40.0720   38.7180   25.8580 O   0  0  0  0  0  0  0  0  0  0  0  0
   31.3740   33.6590   33.0980 S   0  0  0  0  0  0  0  0  0  0  0  0
   39.3920   36.9860   27.8740 C   0  0  0  0  0  0  0  0  0  0  0  0
   30.6040   35.2360   31.2590 C   0  0  0  0  0  0  0  0  0  0  0  0
   37.0450   39.6820   24.1590 C   0  0  0  0  0  0  0  0  0  0  0  0
  2 16  1  0
  3 26  1  0
  3 19  1  0
  3 13  1  0
  4 13  1  0
  5 29  2  0
  5 25  1  0
  6 21  1  0
  7 32  1  0
  8 33  1  0
 10 20  2  0
 12 30  1  0
 13  5  1  0
 14 27  1  0
 14 17  1  0
 15  6  1  0
 15 12  1  0
 17 23  1  0
 17  9  1  0
 19  8  1  0
 21  2  1  0
 22  7  1  0
 22 28  1  0
 23  1  1  0
 24  7  2  0
 25 31  1  0
 26 11  1  0
 27 31  1  0
 27 10  1  0
 28  1  1  0
 28 15  1  0
 30 16  1  0
 32 12  2  0
 33 18  1  0
 33  4  1  0
M  END
$$$$
