
     RDKit          3D

 11 11  0  0  0  0  0  0  0  0999 V2000
   41.6760   37.6110   31.5650 C   0  0  0  0  0  0  0  0  0  0  0  0
   40.8220   38.2700   30.5850 O   0  0  0  0  0  0  0  0  0  0  0  0
   38.8260   36.1680   26.4300 O   0  0  0  0  0  0  0  0  0  0  0  0
   40.5290   36.0070   29.6380 C   0  0  0  0  0  0  0  0  0  0  0  0
   38.7140   37.6030   29.6210 C   0  0  0  0  0  0  0  0  0  0  0  0
   38.2700   37.0910   28.4230 O   0  0  0  0  0  0  0  0  0  0  0  0
   38.8030   35.9350   27.8380 C   0  0  0  0  0  0  0  0  0  0  0  0
   40.0680   37.3760   29.9250 C   0  0  0  0  0  0  0  0  0  0  0  0
   40.2370   35.5800   28.2110 C   0  0  0  0  0  0  0  0  0  0  0  0
   41.7460   35.4480   29.9960 O   0  0  0  0  0  0  0  0  0  0  0  0
   40.6720   34.4530   27.7370 O   0  0  0  0  0  0  0  0  0  0  0  0
  2  1  1  0
  4  8  1  0
  4 10  1  0
  5  8  1  0
  6  5  1  0
  7  3  1  0
  7  9  1  0
  7  6  1  0
  8  2  1  0
  9 11  1  0
  9  4  1  0
M  END
$$$$

     RDKit          3D

 14 13  0  0  0  0  0  0  0  0999 V2000
   41.4180   36.3550   27.0020 C   0  0  0  0  0  0  0  0  0  0  0  0
   39.3440   36.6830   33.9290 C   0  0  0  0  0  0  0  0  0  0  0  0
   38.4560   34.3090   34.4350 C   0  0  0  0  0  0  0  0  0  0  0  0
   39.5920   36.5010   31.7950 C   0  0  0  0  0  0  0  0  0  0  0  0
   39.3500   35.9280   32.9340 C   0  0  0  0  0  0  0  0  0  0  0  0
   37.9900   32.3590   34.0590 O   0  0  0  0  0  0  0  0  0  0  0  0
   38.7790   34.6450   33.0980 N   0  0  0  0  0  0  0  0  0  0  0  0
   40.2280   35.6230   30.7840 C   0  0  0  0  0  0  0  0  0  0  0  0
   37.9170   33.2770   34.7960 C   0  0  0  0  0  0  0  0  0  0  0  0
   40.4990   37.5690   32.2290 O   0  0  0  0  0  0  0  0  0  0  0  0
   39.7900   35.1260   28.4770 C   0  0  0  0  0  0  0  0  0  0  0  0
   40.4040   36.0960   29.4390 N   0  0  0  0  0  0  0  0  0  0  0  0
   37.5720   32.7250   36.1020 N   0  0  0  0  0  0  0  0  0  0  0  0
   40.7320   36.2340   28.3700 C   0  0  0  0  0  0  0  0  0  0  0  0
  1 14  1  0
  3  9  1  0
  4 10  1  0
  4  5  1  0
  5  7  1  0
  5  2  2  0
  6  9  2  0
  7  3  1  0
  8  4  1  0
  9 13  1  0
 12  8  1  0
 14 11  1  0
 14 12  1  0
M  END
$$$$

     RDKit          3D

 16 16  0  0  0  0  0  0  0  0999 V2000
   34.1550   36.1670   30.6700 N   0  0  0  0  0  0  0  0  0  0  0  0
   36.0510   35.3050   31.8840 C   0  0  0  0  0  0  0  0  0  0  0  0
   42.3370   38.5280   25.8890 C   0  0  0  0  0  0  0  0  0  0  0  0
   37.4520   36.0580   29.9380 N   0  0  0  0  0  0  0  0  0  0  0  0
   39.3040   36.8160   27.6030 C   0  0  0  0  0  0  0  0  0  0  0  0
   41.4690   34.8400   26.8800 C   0  0  0  0  0  0  0  0  0  0  0  0
   38.1110   37.3790   27.8990 O   0  0  0  0  0  0  0  0  0  0  0  0
   34.6580   35.6270   31.7390 C   0  0  0  0  0  0  0  0  0  0  0  0
   39.4330   35.4310   28.0580 C   0  0  0  0  0  0  0  0  0  0  0  0
   41.4290   37.4100   26.3240 C   0  0  0  0  0  0  0  0  0  0  0  0
   42.0200   36.0550   26.4560 C   0  0  0  0  0  0  0  0  0  0  0  0
   37.0790   37.9510   28.4330 C   0  0  0  0  0  0  0  0  0  0  0  0
   37.1620   35.2350   30.9090 C   0  0  0  0  0  0  0  0  0  0  0  0
   40.1420   37.8300   26.8280 C   0  0  0  0  0  0  0  0  0  0  0  0
   36.6320   37.1200   29.6530 C   0  0  0  0  0  0  0  0  0  0  0  0
   40.3950   34.5610   27.6360 C   0  0  0  0  0  0  0  0  0  0  0  0
  1  8  2  0
  3 10  1  0
  4 13  2  3
  5  7  1  0
  5  9  1  0
  6 16  2  0
  7 12  1  0
  8  2  1  0
 10 11  2  0
 10 14  1  0
 11  6  1  0
 12 15  1  0
 13  2  1  0
 14  5  2  0
 15  4  1  0
 16  9  1  0
M  END
$$$$

     RDKit          3D

 12 13  0  0  0  0  0  0  0  0999 V2000
   37.1530   38.7650   24.4730 C   0  0  0  0  0  0  0  0  0  0  0  0
   41.5750   35.3150   28.0560 N   0  0  0  0  0  0  0  0  0  0  0  0
   38.1850   36.3890   27.5590 C   0  0  0  0  0  0  0  0  0  0  0  0
   38.8430   38.2990   26.1150 C   0  0  0  0  0  0  0  0  0  0  0  0
   39.3330   39.6360   24.2110 O   0  0  0  0  0  0  0  0  0  0  0  0
   36.8210   37.4340   25.0910 C   0  0  0  0  0  0  0  0  0  0  0  0
   37.8210   37.3210   26.4250 C   0  0  0  0  0  0  0  0  0  0  0  0
   40.2480   35.4290   28.6460 O   0  0  0  0  0  0  0  0  0  0  0  0
   40.0290   38.3400   26.7820 C   0  0  0  0  0  0  0  0  0  0  0  0
   39.5240   36.4230   28.0550 C   0  0  0  0  0  0  0  0  0  0  0  0
   40.4790   37.4870   27.6600 C   0  0  0  0  0  0  0  0  0  0  0  0
   38.5050   39.1240   25.0790 C   0  0  0  0  0  0  0  0  0  0  0  0
  1 12  1  0
  1  6  1  0
  2  8  1  0
  3 10  1  0
  4  7  1  0
  4  9  2  0
  6  7  1  0
  7  3  2  0
  9 11  1  0
 10  8  1  0
 11 10  2  0
 12  5  1  0
 12  4  1  0
M  END
$$$$

     RDKit          3D

 12 12  0  0  0  0  0  0  0  0999 V2000
   40.1880   36.0060   31.9930 S   0  0  0  0  0  0  0  0  0  0  0  0
   38.7050   36.1240   29.8820 C   0  0  0  0  0  0  0  0  0  0  0  0
   38.8520   35.3340   31.2010 C   0  0  0  0  0  0  0  0  0  0  0  0
   38.8090   32.9220   32.4050 C   0  0  0  0  0  0  0  0  0  0  0  0
   38.0720   34.3360   32.1890 C   0  0  0  0  0  0  0  0  0  0  0  0
   39.6590   37.1460   29.7360 C   0  0  0  0  0  0  0  0  0  0  0  0
   40.4780   37.2920   30.7880 C   0  0  0  0  0  0  0  0  0  0  0  0
   41.3690   38.3110   31.0410 C   0  0  0  0  0  0  0  0  0  0  0  0
   39.8950   38.0100   27.4230 O   0  0  0  0  0  0  0  0  0  0  0  0
   42.0320   39.2260   31.1350 N   0  0  0  0  0  0  0  0  0  0  0  0
   37.8990   35.9010   28.8160 O   0  0  0  0  0  0  0  0  0  0  0  0
   39.7670   37.8180   28.5030 C   0  0  0  0  0  0  0  0  0  0  0  0
  2 11  1  0
  2  3  1  0
  3  1  1  0
  3  5  1  0
  5  4  1  0
  6  2  1  0
  6  7  1  0
  7  8  1  0
  7  1  1  0
  8 10  3  0
  9 12  2  0
 12  6  2  0
M  END
$$$$

     RDKit          3D

  3  2  0  0  0  0  0  0  0  0999 V2000
   39.7480   36.9060   24.3970 C   0  0  0  0  0  0  0  0  0  0  0  0
   42.0760   36.0540   25.6550 O   0  0  0  0  0  0  0  0  0  0  0  0
   40.6870   36.3870   25.7540 C   0  0  0  0  0  0  0  0  0  0  0  0
  1  3  1  0
  2  3  1  0
M  END
$$$$

     RDKit          3D

 39 44  0  0  0  0  0  0  0  0999 V2000
   31.6570   35.3980   31.1680 O   0  0  0  0  0  0  0  0  0  0  0  0
   33.5670   35.8300   33.2530 C   0  0  0  0  0  0  0  0  0  0  0  0
   37.7150   35.8140   22.6210 N   0  0  0  0  0  0  0  0  0  0  0  0
   40.1780   37.1920   25.1390 C   0  0  0  0  0  0  0  0  0  0  0  0
   35.4020   34.2500   33.7230 C   0  0  0  0  0  0  0  0  0  0  0  0
   34.2310   36.5600   23.2030 N   0  0  0  0  0  0  0  0  0  0  0  0
   36.0870   36.7960   24.6180 N   0  0  0  0  0  0  0  0  0  0  0  0
   36.4600   34.1610   20.6050 C   0  0  0  0  0  0  0  0  0  0  0  0
   36.0770   33.6380   34.9410 C   0  0  0  0  0  0  0  0  0  0  0  0
   40.8030   36.7550   27.1580 C   0  0  0  0  0  0  0  0  0  0  0  0
   39.7720   35.7990   27.3190 C   0  0  0  0  0  0  0  0  0  0  0  0
   36.8670   36.4600   19.8900 C   0  0  0  0  0  0  0  0  0  0  0  0
   36.0580   35.6030   20.8770 C   0  0  0  0  0  0  0  0  0  0  0  0
   38.8780   35.7000   26.3640 N   0  0  0  0  0  0  0  0  0  0  0  0
   34.0310   34.7010   34.1530 N   0  0  0  0  0  0  0  0  0  0  0  0
   36.6020   34.2150   31.3670 C   0  0  0  0  0  0  0  0  0  0  0  0
   32.1650   35.3700   30.0400 C   0  0  0  0  0  0  0  0  0  0  0  0
   35.5010   34.6860   32.2600 C   0  0  0  0  0  0  0  0  0  0  0  0
   37.7670   34.6860   30.4560 C   0  0  0  0  0  0  0  0  0  0  0  0
   39.5040   35.2540   28.5030 N   0  0  0  0  0  0  0  0  0  0  0  0
   37.4630   36.5860   24.7520 C   0  0  0  0  0  0  0  0  0  0  0  0
   36.6230   36.4450   29.2760 C   0  0  0  0  0  0  0  0  0  0  0  0
   37.8450   36.0920   30.0940 C   0  0  0  0  0  0  0  0  0  0  0  0
   34.2710   35.5020   31.9450 C   0  0  0  0  0  0  0  0  0  0  0  0
   35.5840   36.3950   23.4080 C   0  0  0  0  0  0  0  0  0  0  0  0
   38.8650   36.4480   25.2250 C   0  0  0  0  0  0  0  0  0  0  0  0
   35.0320   33.1710   35.5880 C   0  0  0  0  0  0  0  0  0  0  0  0
   41.0340   37.3620   26.0110 N   0  0  0  0  0  0  0  0  0  0  0  0
   36.4460   35.9550   22.3620 C   0  0  0  0  0  0  0  0  0  0  0  0
   34.3020   35.8130   30.4910 C   0  0  0  0  0  0  0  0  0  0  0  0
   31.2840   35.0200   28.8560 C   0  0  0  0  0  0  0  0  0  0  0  0
   35.0510   32.6630   37.0220 C   0  0  0  0  0  0  0  0  0  0  0  0
   33.7570   33.9660   35.3730 O   0  0  0  0  0  0  0  0  0  0  0  0
   35.5050   36.7370   30.1880 C   0  0  0  0  0  0  0  0  0  0  0  0
   32.4550   36.7520   33.7510 C   0  0  0  0  0  0  0  0  0  0  0  0
   36.0020   31.7910   37.8090 C   0  0  0  0  0  0  0  0  0  0  0  0
   33.4060   35.6230   29.6880 N   0  0  0  0  0  0  0  0  0  0  0  0
   38.9680   36.0690   29.3440 C   0  0  0  0  0  0  0  0  0  0  0  0
   38.1380   36.0780   23.7270 C   0  0  0  0  0  0  0  0  0  0  0  0
  2 35  1  0
  2 15  1  0
  3 39  1  0
  4 28  2  0
  5 15  1  0
  5  9  1  0
  6 25  1  0
  7 21  1  0
  8 13  1  0
  9 27  1  0
 10 11  1  0
 11 20  1  0
 12 13  1  0
 13 29  1  0
 14 11  2  0
 15 33  1  0
 16 18  1  0
 17  1  2  0
 18  5  2  0
 19 16  2  0
 20 38  1  0
 21 26  1  0
 22 23  1  0
 22 34  1  0
 23 38  1  0
 23 19  1  0
 24 18  1  0
 24  2  2  0
 25  7  2  0
 26  4  1  0
 26 14  1  0
 27 32  1  0
 28 10  1  0
 29  3  2  0
 29 25  1  0
 30 37  1  0
 30 24  1  0
 31 17  1  0
 32 36  1  0
 33 27  1  0
 34 30  1  0
 37 17  1  0
 39 21  2  0
 39 26  1  0
M  END
$$$$

     RDKit          3D

  9  9  0  0  0  0  0  0  0  0999 V2000
   40.5620   36.2890   27.6210 C   0  0  0  0  0  0  0  0  0  0  0  0
   38.1730   36.4750   27.7780 C   0  0  0  0  0  0  0  0  0  0  0  0
   43.1460   37.8140   27.2720 C   0  0  0  0  0  0  0  0  0  0  0  0
   40.5820   37.5970   27.1710 C   0  0  0  0  0  0  0  0  0  0  0  0
   39.4430   38.3730   27.2000 C   0  0  0  0  0  0  0  0  0  0  0  0
   41.7880   39.1660   25.5910 C   0  0  0  0  0  0  0  0  0  0  0  0
   38.2400   37.7870   27.3040 C   0  0  0  0  0  0  0  0  0  0  0  0
   41.8210   38.4160   26.8620 C   0  0  0  0  0  0  0  0  0  0  0  0
   39.3340   35.7400   27.9230 C   0  0  0  0  0  0  0  0  0  0  0  0
  1  9  1  0
  2  9  2  0
  4  5  1  0
  4  1  2  0
  5  7  2  0
  6  8  1  0
  7  2  1  0
  8  4  1  0
  8  3  1  0
M  END
$$$$

     RDKit          3D

  8  7  0  0  0  0  0  0  0  0999 V2000
   40.9970   39.3650   27.9770 O   0  0  0  0  0  0  0  0  0  0  0  0
   39.0540   36.6860   26.4890 C   0  0  0  0  0  0  0  0  0  0  0  0
   40.9110   38.5140   26.7120 C   0  0  0  0  0  0  0  0  0  0  0  0
   41.7480   39.0850   25.8910 O   0  0  0  0  0  0  0  0  0  0  0  0
   38.4230   38.2150   28.3400 C   0  0  0  0  0  0  0  0  0  0  0  0
   38.6260   37.9950   26.8440 O   0  0  0  0  0  0  0  0  0  0  0  0
   40.1960   36.0730   27.1380 C   0  0  0  0  0  0  0  0  0  0  0  0
   41.3210   37.0970   27.2750 C   0  0  0  0  0  0  0  0  0  0  0  0
  2  6  1  0
  2  7  1  0
  3  8  1  0
  3  1  1  0
  4  3  1  0
  6  5  1  0
  7  8  1  0
M  END
$$$$

     RDKit          3D

  8  7  0  0  0  0  0  0  0  0999 V2000
   41.0920   38.7530   24.7090 C   0  0  0  0  0  0  0  0  0  0  0  0
   40.1580   34.7330   26.8840 O   0  0  0  0  0  0  0  0  0  0  0  0
   39.0910   38.0220   26.7300 C   0  0  0  0  0  0  0  0  0  0  0  0
   39.6660   36.6680   25.1990 C   0  0  0  0  0  0  0  0  0  0  0  0
   40.2820   37.0790   26.4400 C   0  0  0  0  0  0  0  0  0  0  0  0
   41.6110   39.9580   24.7030 O   0  0  0  0  0  0  0  0  0  0  0  0
   40.7850   35.7640   26.9480 C   0  0  0  0  0  0  0  0  0  0  0  0
   41.4760   38.0290   26.1270 C   0  0  0  0  0  0  0  0  0  0  0  0
  1  8  1  0
  2  7  2  0
  4  5  1  0
  5  3  1  0
  5  7  1  0
  6  1  1  0
  8  5  1  0
M  END
$$$$

     RDKit          3D

  5  4  0  0  0  0  0  0  0  0999 V2000
   39.8720   33.7230   27.9950 C   0  0  0  0  0  0  0  0  0  0  0  0
   40.1150   30.4870   29.4520 O   0  0  0  0  0  0  0  0  0  0  0  0
   40.1790   32.6540   29.0670 C   0  0  0  0  0  0  0  0  0  0  0  0
   41.0080   33.8070   27.0200 O   0  0  0  0  0  0  0  0  0  0  0  0
   39.3810   31.6100   29.9260 C   0  0  0  0  0  0  0  0  0  0  0  0
  1  3  1  0
  2  5  1  0
  3  5  1  0
  4  1  1  0
M  END
$$$$

     RDKit          3D

  6  5  0  0  0  0  0  0  0  0999 V2000
   39.2350   37.6250   25.3420 O   0  0  0  0  0  0  0  0  0  0  0  0
   40.1590   36.8740   25.3260 C   0  0  0  0  0  0  0  0  0  0  0  0
   39.6590   35.1520   23.6060 C   0  0  0  0  0  0  0  0  0  0  0  0
   40.4900   35.7890   24.4050 C   0  0  0  0  0  0  0  0  0  0  0  0
   39.7180   35.7790   22.2140 C   0  0  0  0  0  0  0  0  0  0  0  0
   40.9130   36.5080   26.6130 O   0  0  0  0  0  0  0  0  0  0  0  0
  2  1  2  0
  2  6  1  0
  3  4  1  0
  4  2  1  0
  5  3  1  0
M  END
$$$$

     RDKit          3D

 26 27  0  0  0  0  0  0  0  0999 V2000
   36.7110   33.4040   36.4850 N   0  0  0  0  0  0  0  0  0  0  0  0
   42.6750   38.7370   26.1390 C   0  0  0  0  0  0  0  0  0  0  0  0
   40.9710   37.5660   27.5500 C   0  0  0  0  0  0  0  0  0  0  0  0
   32.6290   35.8660   34.5440 C   0  0  0  0  0  0  0  0  0  0  0  0
   41.1930   36.7800   25.2790 N   0  0  0  0  0  0  0  0  0  0  0  0
   35.2290   35.2050   33.4510 C   0  0  0  0  0  0  0  0  0  0  0  0
   38.7580   34.1250   29.8950 C   0  0  0  0  0  0  0  0  0  0  0  0
   43.7760   39.0540   26.0250 O   0  0  0  0  0  0  0  0  0  0  0  0
   36.5080   34.2800   33.1480 C   0  0  0  0  0  0  0  0  0  0  0  0
   32.7590   35.5820   33.0780 C   0  0  0  0  0  0  0  0  0  0  0  0
   39.8460   35.2160   28.2230 C   0  0  0  0  0  0  0  0  0  0  0  0
   37.1560   33.9690   31.8110 C   0  0  0  0  0  0  0  0  0  0  0  0
   38.5320   35.2910   29.0510 C   0  0  0  0  0  0  0  0  0  0  0  0
   41.9710   37.4730   26.6510 C   0  0  0  0  0  0  0  0  0  0  0  0
   33.6130   35.1690   35.4280 C   0  0  0  0  0  0  0  0  0  0  0  0
   34.0520   34.9330   32.4890 C   0  0  0  0  0  0  0  0  0  0  0  0
   34.9260   34.8170   34.8550 C   0  0  0  0  0  0  0  0  0  0  0  0
   32.6240   36.8140   32.4280 F   0  0  0  0  0  0  0  0  0  0  0  0
   40.1640   36.6740   28.2450 C   0  0  0  0  0  0  0  0  0  0  0  0
   38.5780   34.4530   31.3570 C   0  0  0  0  0  0  0  0  0  0  0  0
   40.0190   33.4800   29.6630 C   0  0  0  0  0  0  0  0  0  0  0  0
   40.8870   34.6650   27.3770 O   0  0  0  0  0  0  0  0  0  0  0  0
   36.6560   33.3850   34.0370 N   0  0  0  0  0  0  0  0  0  0  0  0
   35.8980   33.9690   35.4190 C   0  0  0  0  0  0  0  0  0  0  0  0
   41.8290   39.4460   25.1400 O   0  0  0  0  0  0  0  0  0  0  0  0
   39.1450   37.4120   28.8030 O   0  0  0  0  0  0  0  0  0  0  0  0
  2 14  1  0
  3 19  2  3
  4 15  1  0
  6 16  1  0
  6 17  1  0
  7 21  1  0
  7 20  1  0
  8  2  1  0
  9 12  1  0
  9  6  1  0
  9 23  1  0
 10 18  1  0
 10  4  1  0
 11 22  1  0
 11 19  1  0
 11 13  1  0
 13  7  1  0
 14  5  1  0
 14  3  1  0
 16 10  1  0
 17 24  1  0
 17 15  2  0
 19 26  1  0
 20 12  1  0
 23 24  1  0
 24  1  1  0
 25  2  2  0
M  END
$$$$

     RDKit          3D

 20 21  0  0  0  0  0  0  0  0999 V2000
   41.7510   39.3000   27.6360 O   0  0  0  0  0  0  0  0  0  0  0  0
   40.7800   38.6490   28.5050 C   0  0  0  0  0  0  0  0  0  0  0  0
   38.0620   34.5290   31.9000 C   0  0  0  0  0  0  0  0  0  0  0  0
   35.4220   31.6730   34.3460 C   0  0  0  0  0  0  0  0  0  0  0  0
   36.0620   32.2220   33.1900 C   0  0  0  0  0  0  0  0  0  0  0  0
   39.2060   34.2850   28.4780 C   0  0  0  0  0  0  0  0  0  0  0  0
   42.0180   38.6470   30.7120 C   0  0  0  0  0  0  0  0  0  0  0  0
   39.0890   36.6890   27.9920 C   0  0  0  0  0  0  0  0  0  0  0  0
   40.8680   38.0280   29.9250 N   0  0  0  0  0  0  0  0  0  0  0  0
   39.6920   35.7960   30.3480 C   0  0  0  0  0  0  0  0  0  0  0  0
   41.7020   38.5540   32.1990 O   0  0  0  0  0  0  0  0  0  0  0  0
   38.3450   35.2500   30.8720 C   0  0  0  0  0  0  0  0  0  0  0  0
   36.2170   31.2620   35.3750 C   0  0  0  0  0  0  0  0  0  0  0  0
   39.8580   37.3130   30.5870 C   0  0  0  0  0  0  0  0  0  0  0  0
   35.6830   30.9140   37.1850 Br  0  0  0  0  0  0  0  0  0  0  0  0
   38.3030   33.1190   32.3000 C   0  0  0  0  0  0  0  0  0  0  0  0
   37.8190   31.6340   34.9300 S   0  0  0  0  0  0  0  0  0  0  0  0
   39.7710   35.5570   28.7930 C   0  0  0  0  0  0  0  0  0  0  0  0
   37.4420   32.3440   33.3240 C   0  0  0  0  0  0  0  0  0  0  0  0
   40.1620   37.7640   27.5090 C   0  0  0  0  0  0  0  0  0  0  0  0
  1  2  2  0
  2  9  1  0
  3 16  1  0
  4 13  2  0
  5 19  2  0
  5  4  1  0
  7 11  1  0
  8 18  1  0
  9 14  1  0
  9  7  1  0
 10 14  1  0
 10 12  1  0
 12  3  1  0
 13 15  1  0
 16 19  1  0
 17 13  1  0
 18  6  1  0
 18 10  1  0
 19 17  1  0
 20  8  1  0
 20  2  1  0
M  END
$$$$

     RDKit          3D

 14 14  0  0  0  0  0  0  0  0999 V2000
   41.1430   35.1900   27.0460 C   0  0  0  0  0  0  0  0  0  0  0  0
   38.2440   33.8750   29.9480 N   0  0  0  0  0  0  0  0  0  0  0  0
   38.5810   36.5800   29.0520 C   0  0  0  0  0  0  0  0  0  0  0  0
   39.0340   33.2010   28.0750 O   0  0  0  0  0  0  0  0  0  0  0  0
   39.5710   37.6360   26.2420 C   0  0  0  0  0  0  0  0  0  0  0  0
   41.6640   39.4690   26.5790 O   0  0  0  0  0  0  0  0  0  0  0  0
   40.0170   35.9020   27.6490 N   0  0  0  0  0  0  0  0  0  0  0  0
   39.6800   37.1410   27.4230 C   0  0  0  0  0  0  0  0  0  0  0  0
   40.6710   37.9030   25.2300 C   0  0  0  0  0  0  0  0  0  0  0  0
   40.2850   39.1320   24.4730 C   0  0  0  0  0  0  0  0  0  0  0  0
   39.1540   35.5130   28.5120 C   0  0  0  0  0  0  0  0  0  0  0  0
   41.9390   38.1950   25.8580 C   0  0  0  0  0  0  0  0  0  0  0  0
   38.8480   34.1230   28.7980 C   0  0  0  0  0  0  0  0  0  0  0  0
   38.9760   37.6190   28.4150 N   0  0  0  0  0  0  0  0  0  0  0  0
  1  7  1  0
  4 13  2  0
  7 11  1  0
  8  5  1  0
  8  7  1  0
  8 14  1  0
  9 10  1  0
  9 12  1  0
  9  5  1  0
 11 13  1  0
 11  3  1  0
 12  6  1  0
 13  2  1  0
 14  3  1  0
M  END
$$$$

     RDKit          3D

 12 12  0  0  0  0  0  0  0  0999 V2000
   39.5710   36.7920   27.6990 C   0  0  0  0  0  0  0  0  0  0  0  0
   39.4800   38.9480   26.8150 C   0  0  0  0  0  0  0  0  0  0  0  0
   39.5940   34.2130   32.5440 C   0  0  0  0  0  0  0  0  0  0  0  0
   40.3130   38.0930   27.7870 C   0  0  0  0  0  0  0  0  0  0  0  0
   40.9610   37.7560   30.2300 C   0  0  0  0  0  0  0  0  0  0  0  0
   40.5620   38.6150   29.1980 C   0  0  0  0  0  0  0  0  0  0  0  0
   39.5590   34.6440   30.0650 C   0  0  0  0  0  0  0  0  0  0  0  0
   40.1770   33.9440   31.2530 N   0  0  0  0  0  0  0  0  0  0  0  0
   40.3510   39.2670   25.7450 C   0  0  0  0  0  0  0  0  0  0  0  0
   40.2210   36.8300   30.8310 N   0  0  0  0  0  0  0  0  0  0  0  0
   39.3990   36.1130   30.0380 C   0  0  0  0  0  0  0  0  0  0  0  0
   38.6350   36.6800   28.8470 C   0  0  0  0  0  0  0  0  0  0  0  0
  1  4  1  0
  1 12  1  0
  4  2  1  0
  4  6  1  0
  5 10  1  0
  6  5  1  0
  7  8  1  0
  8  3  1  0
  9  2  1  0
 11  7  1  0
 11 10  1  0
 12 11  1  0
M  END
$$$$

     RDKit          3D

 31 31  0  0  0  0  0  0  0  0999 V2000
   38.5350   38.1180   25.9480 C   0  0  0  0  0  0  0  0  0  0  0  0
   38.7290   34.8150   30.9620 C   0  0  0  0  0  0  0  0  0  0  0  0
   38.8150   30.6740   39.0720 C   0  0  0  0  0  0  0  0  0  0  0  0
   40.0160   28.0280   41.4830 C   0  0  0  0  0  0  0  0  0  0  0  0
   39.5000   35.0690   33.2000 O   0  0  0  0  0  0  0  0  0  0  0  0
   38.4260   34.5580   32.4450 C   0  0  0  0  0  0  0  0  0  0  0  0
   38.6210   37.2570   26.9940 C   0  0  0  0  0  0  0  0  0  0  0  0
   39.2170   35.0940   19.8470 C   0  0  0  0  0  0  0  0  0  0  0  0
   39.1850   38.2440   21.0900 C   0  0  0  0  0  0  0  0  0  0  0  0
   38.1580   30.6840   37.6310 C   0  0  0  0  0  0  0  0  0  0  0  0
   39.2750   36.9800   20.8240 C   0  0  0  0  0  0  0  0  0  0  0  0
   38.0750   33.1230   32.9630 C   0  0  0  0  0  0  0  0  0  0  0  0
   38.2750   39.1990   21.2220 C   0  0  0  0  0  0  0  0  0  0  0  0
   38.1650   31.7660   35.4190 C   0  0  0  0  0  0  0  0  0  0  0  0
   38.1750   38.2630   24.5190 C   0  0  0  0  0  0  0  0  0  0  0  0
   37.8690   37.1260   23.8240 O   0  0  0  0  0  0  0  0  0  0  0  0
   38.6840   32.8010   34.3660 C   0  0  0  0  0  0  0  0  0  0  0  0
   38.4950   32.1520   37.0370 C   0  0  0  0  0  0  0  0  0  0  0  0
   37.8670   34.6430   21.8750 C   0  0  0  0  0  0  0  0  0  0  0  0
   39.6780   37.2190   28.1130 C   0  0  0  0  0  0  0  0  0  0  0  0
   39.6200   38.2390   24.9150 C   0  0  0  0  0  0  0  0  0  0  0  0
   37.5420   39.5130   23.9990 C   0  0  0  0  0  0  0  0  0  0  0  0
   36.7970   40.9430   22.1070 C   0  0  0  0  0  0  0  0  0  0  0  0
   39.4300   35.9140   28.8900 C   0  0  0  0  0  0  0  0  0  0  0  0
   37.6250   39.7320   22.4670 C   0  0  0  0  0  0  0  0  0  0  0  0
   38.2150   35.8560   20.6670 C   0  0  0  0  0  0  0  0  0  0  0  0
   37.0060   36.3790   20.4260 O   0  0  0  0  0  0  0  0  0  0  0  0
   38.5140   36.0660   30.1200 C   0  0  0  0  0  0  0  0  0  0  0  0
   38.7620   34.5260   18.6530 O   0  0  0  0  0  0  0  0  0  0  0  0
   38.7160   29.3170   39.8250 C   0  0  0  0  0  0  0  0  0  0  0  0
   39.0710   29.2420   41.3420 C   0  0  0  0  0  0  0  0  0  0  0  0
  1  7  1  0
  2  6  1  0
  3 30  1  0
  6 12  1  0
  6  5  1  0
  7 20  1  0
  8 26  1  0
  9 13  1  0
 10  3  1  0
 11  9  2  3
 12 17  1  0
 13 25  2  3
 14 18  1  0
 15 16  1  0
 15 21  1  0
 15  1  1  0
 17 14  1  0
 18 10  1  0
 20 24  1  0
 21  1  1  0
 22 15  1  0
 23 25  1  0
 24 28  1  0
 25 22  1  0
 26 11  1  0
 26 19  1  0
 27 26  1  0
 28  2  1  0
 29  8  1  0
 30 31  1  0
 31  4  1  0
M  END
$$$$

     RDKit          3D

  9  9  0  0  0  0  0  0  0  0999 V2000
   39.8400   37.2210   24.8100 N   0  0  0  0  0  0  0  0  0  0  0  0
   40.3580   38.3790   25.3830 C   0  0  0  0  0  0  0  0  0  0  0  0
   40.8920   38.2630   26.6130 C   0  0  0  0  0  0  0  0  0  0  0  0
   39.8920   36.0690   25.4270 C   0  0  0  0  0  0  0  0  0  0  0  0
   40.9460   37.0930   27.3000 C   0  0  0  0  0  0  0  0  0  0  0  0
   41.4420   39.3650   27.2870 O   0  0  0  0  0  0  0  0  0  0  0  0
   39.3380   35.0260   24.9430 O   0  0  0  0  0  0  0  0  0  0  0  0
   39.5990   37.2150   23.3460 C   0  0  0  0  0  0  0  0  0  0  0  0
   40.6300   35.9670   26.6440 C   0  0  0  0  0  0  0  0  0  0  0  0
  1  2  1  0
  1  4  1  0
  2  3  1  0
  3  6  1  0
  3  5  2  0
  4  9  1  0
  7  4  2  0
  8  1  1  0
  9  5  1  0
M  END
$$$$

     RDKit          3D

  8  8  0  0  0  0  0  0  0  0999 V2000
   40.1700   36.5650   25.5160 C   0  0  0  0  0  0  0  0  0  0  0  0
   41.4320   35.8910   25.9990 C   0  0  0  0  0  0  0  0  0  0  0  0
   39.2860   35.6410   24.7350 C   0  0  0  0  0  0  0  0  0  0  0  0
   39.9880   37.8250   26.1610 O   0  0  0  0  0  0  0  0  0  0  0  0
   42.9420   38.8870   27.3190 O   0  0  0  0  0  0  0  0  0  0  0  0
   41.8830   38.0710   26.9460 C   0  0  0  0  0  0  0  0  0  0  0  0
   42.3580   36.8000   26.5850 N   0  0  0  0  0  0  0  0  0  0  0  0
   40.9570   38.7110   25.9480 C   0  0  0  0  0  0  0  0  0  0  0  0
  1  3  1  0
  1  2  1  0
  1  4  1  0
  2  7  1  0
  6  5  1  0
  7  6  1  0
  8  4  1  0
  8  6  1  0
M  END
$$$$

     RDKit          3D

 28 30  0  0  0  0  0  0  0  0999 V2000
   41.1600   37.9000   27.6220 O   0  0  0  0  0  0  0  0  0  0  0  0
   33.8130   35.3760   33.1210 C   0  0  0  0  0  0  0  0  0  0  0  0
   40.3100   39.0540   25.0820 C   0  0  0  0  0  0  0  0  0  0  0  0
   30.1590   34.6790   33.1680 C   0  0  0  0  0  0  0  0  0  0  0  0
   38.9620   39.1520   27.2570 C   0  0  0  0  0  0  0  0  0  0  0  0
   37.5610   37.1780   28.4030 C   0  0  0  0  0  0  0  0  0  0  0  0
   40.4450   38.9550   23.8920 O   0  0  0  0  0  0  0  0  0  0  0  0
   41.4330   42.5590   26.0300 C   0  0  0  0  0  0  0  0  0  0  0  0
   42.9160   40.7000   26.1640 O   0  0  0  0  0  0  0  0  0  0  0  0
   36.2210   36.5350   30.5910 C   0  0  0  0  0  0  0  0  0  0  0  0
   39.8300   37.8950   25.6340 N   0  0  0  0  0  0  0  0  0  0  0  0
   42.0230   41.5010   24.0480 C   0  0  0  0  0  0  0  0  0  0  0  0
   39.4250   38.4000   29.4800 O   0  0  0  0  0  0  0  0  0  0  0  0
   33.1120   32.4750   34.6630 C   0  0  0  0  0  0  0  0  0  0  0  0
   32.4990   34.7970   33.6110 C   0  0  0  0  0  0  0  0  0  0  0  0
   31.2430   35.6730   33.4800 C   0  0  0  0  0  0  0  0  0  0  0  0
   39.8540   37.8300   27.0640 C   0  0  0  0  0  0  0  0  0  0  0  0
   30.7760   33.2170   34.0860 C   0  0  0  0  0  0  0  0  0  0  0  0
   35.1190   36.0370   31.1050 C   0  0  0  0  0  0  0  0  0  0  0  0
   41.8410   41.1290   25.5220 C   0  0  0  0  0  0  0  0  0  0  0  0
   32.1980   33.6140   34.1490 C   0  0  0  0  0  0  0  0  0  0  0  0
   40.6350   40.1070   25.8430 N   0  0  0  0  0  0  0  0  0  0  0  0
   32.9760   32.0070   35.6980 O   0  0  0  0  0  0  0  0  0  0  0  0
   38.7940   37.9560   28.1760 C   0  0  0  0  0  0  0  0  0  0  0  0
   33.8720   36.1750   31.7990 C   0  0  0  0  0  0  0  0  0  0  0  0
   36.5310   37.3720   29.4640 C   0  0  0  0  0  0  0  0  0  0  0  0
   40.0190   40.2620   27.2110 C   0  0  0  0  0  0  0  0  0  0  0  0
   29.7480   33.4160   33.7160 N   0  0  0  0  0  0  0  0  0  0  0  0
  3 11  1  0
  3 22  1  0
  4 16  1  0
  4 28  1  0
  5 27  1  0
  5 24  1  0
  6 26  1  0
  7  3  2  0
 10 19  1  0
 11 17  1  0
 12 20  1  0
 14 23  2  0
 15  2  1  0
 15 21  1  0
 16 15  1  0
 17  5  1  0
 17  1  1  0
 17 24  1  0
 18 21  2  0
 19 25  1  0
 20 22  1  0
 20  8  1  0
 20  9  1  0
 21 14  1  0
 22 27  1  0
 24  6  1  0
 24 13  1  0
 25  2  1  0
 26 10  1  0
 28 18  1  0
M  END
$$$$
