
     RDKit          3D

 10 11  0  0  0  0  0  0  0  0999 V2000
   39.2820   37.1290   33.0660 C   0  0  0  0  0  0  0  0  0  0  0  0
   37.7330   37.3630   33.0880 C   0  0  0  0  0  0  0  0  0  0  0  0
   40.8800   37.4980   29.5930 O   0  0  0  0  0  0  0  0  0  0  0  0
   41.1400   37.4900   31.1510 S   0  0  0  0  0  0  0  0  0  0  0  0
   37.3100   38.5970   33.1570 C   0  0  0  0  0  0  0  0  0  0  0  0
   37.2560   36.0110   33.0860 C   0  0  0  0  0  0  0  0  0  0  0  0
   41.5100   35.8210   31.0610 O   0  0  0  0  0  0  0  0  0  0  0  0
   39.5970   37.9770   32.1080 C   0  0  0  0  0  0  0  0  0  0  0  0
   38.7410   35.7510   33.1530 C   0  0  0  0  0  0  0  0  0  0  0  0
   42.2640   38.3520   31.4830 O   0  0  0  0  0  0  0  0  0  0  0  0
  1  8  1  0
  1  2  1  0
  1  9  1  0
  2  9  1  0
  2  5  1  0
  3  4  1  0
  4 10  1  0
  4  8  1  0
  6  2  1  0
  7  4  1  0
  9  6  1  0
M  END
$$$$

     RDKit          3D

 20 22  0  0  0  0  0  0  0  0999 V2000
   40.3000   38.3640   32.0010 C   0  0  0  0  0  0  0  0  0  0  0  0
   40.1170   39.8510   32.2140 C   0  0  0  0  0  0  0  0  0  0  0  0
   34.6860   33.9830   34.2640 C   0  0  0  0  0  0  0  0  0  0  0  0
   40.9540   41.8190   33.6460 C   0  0  0  0  0  0  0  0  0  0  0  0
   40.0900   35.6770   31.4770 C   0  0  0  0  0  0  0  0  0  0  0  0
   41.0220   36.4290   30.7690 C   0  0  0  0  0  0  0  0  0  0  0  0
   34.0690   34.2770   35.2970 N   0  0  0  0  0  0  0  0  0  0  0  0
   40.7860   42.5890   32.3530 C   0  0  0  0  0  0  0  0  0  0  0  0
   40.8030   40.4650   31.0820 C   0  0  0  0  0  0  0  0  0  0  0  0
   36.4180   33.9360   32.4910 C   0  0  0  0  0  0  0  0  0  0  0  0
   40.8770   37.8350   30.8270 C   0  0  0  0  0  0  0  0  0  0  0  0
   40.7090   40.3310   33.5310 C   0  0  0  0  0  0  0  0  0  0  0  0
   37.5850   34.5560   32.0950 C   0  0  0  0  0  0  0  0  0  0  0  0
   35.5750   34.5590   33.4070 C   0  0  0  0  0  0  0  0  0  0  0  0
   37.8970   35.7710   32.6540 C   0  0  0  0  0  0  0  0  0  0  0  0
   40.8790   41.9600   31.1740 C   0  0  0  0  0  0  0  0  0  0  0  0
   39.5810   37.5600   32.7930 N   0  0  0  0  0  0  0  0  0  0  0  0
   37.0590   36.3710   33.5290 C   0  0  0  0  0  0  0  0  0  0  0  0
   35.9020   35.8100   33.9210 C   0  0  0  0  0  0  0  0  0  0  0  0
   39.2890   36.3420   32.3680 C   0  0  0  0  0  0  0  0  0  0  0  0
  1  2  1  0
  1 17  1  0
  2 12  1  0
  3  7  2  0
  5 20  1  0
  6 11  1  0
  6  5  2  0
  8  4  1  0
  9 16  1  0
  9  2  1  0
 10 14  1  0
 11  1  2  0
 12  4  1  0
 13 10  2  0
 13 15  1  0
 14 19  2  0
 14  3  1  0
 15 18  2  0
 16  8  1  0
 18 19  1  0
 20 15  1  0
 20 17  2  0
M  END
$$$$

     RDKit          3D

 19 20  0  0  0  0  0  0  0  0999 V2000
   38.9430   34.5990   35.8270 C   0  0  0  0  0  0  0  0  0  0  0  0
   41.4780   38.6350   31.4220 C   0  0  0  0  0  0  0  0  0  0  0  0
   39.6200   34.8090   34.6420 N   0  0  0  0  0  0  0  0  0  0  0  0
   40.0160   36.7070   36.0970 C   0  0  0  0  0  0  0  0  0  0  0  0
   41.9100   39.5860   29.1500 C   0  0  0  0  0  0  0  0  0  0  0  0
   38.1670   34.3890   38.4640 C   0  0  0  0  0  0  0  0  0  0  0  0
   41.1640   38.9850   32.8470 N   0  0  0  0  0  0  0  0  0  0  0  0
   40.1290   36.1170   34.6960 C   0  0  0  0  0  0  0  0  0  0  0  0
   41.8990   39.8590   30.6370 C   0  0  0  0  0  0  0  0  0  0  0  0
   42.5170   38.5730   28.5170 N   0  0  0  0  0  0  0  0  0  0  0  0
   41.0870   38.0540   33.8110 C   0  0  0  0  0  0  0  0  0  0  0  0
   41.3810   38.3640   34.9850 N   0  0  0  0  0  0  0  0  0  0  0  0
   39.0030   35.5920   38.1860 C   0  0  0  0  0  0  0  0  0  0  0  0
   40.5940   36.7100   33.5380 C   0  0  0  0  0  0  0  0  0  0  0  0
   38.3370   33.4310   36.2910 C   0  0  0  0  0  0  0  0  0  0  0  0
   37.8490   33.6180   37.7330 C   0  0  0  0  0  0  0  0  0  0  0  0
   39.3190   35.6020   36.8250 C   0  0  0  0  0  0  0  0  0  0  0  0
   41.1230   41.1220   30.9340 C   0  0  0  0  0  0  0  0  0  0  0  0
   36.6730   32.5650   37.6660 C   0  0  0  0  0  0  0  0  0  0  0  0
  1 15  2  0
  1 17  1  0
  2  7  1  0
  3  8  1  0
  3  1  1  0
  4 17  1  0
  5  9  1  0
  7 11  1  0
  8 14  1  0
  8  4  1  0
  9 18  1  0
  9  2  1  0
 10  5  1  0
 11 12  2  0
 13  6  1  0
 14 11  1  0
 15 16  1  0
 16  6  2  0
 17 13  2  0
 19 16  1  0
M  END
$$$$

     RDKit          3D

 17 17  0  0  0  0  0  0  0  0999 V2000
   40.9090   37.3430   32.1790 N   0  0  0  0  0  0  0  0  0  0  0  0
   38.5650   36.5020   32.6370 C   0  0  0  0  0  0  0  0  0  0  0  0
   41.5780   42.3700   31.6370 S   0  0  0  0  0  0  0  0  0  0  0  0
   35.8120   35.0220   32.9790 O   0  0  0  0  0  0  0  0  0  0  0  0
   41.6120   39.6360   31.9110 C   0  0  0  0  0  0  0  0  0  0  0  0
   43.2130   41.5670   33.0580 C   0  0  0  0  0  0  0  0  0  0  0  0
   40.1640   39.5650   31.6480 C   0  0  0  0  0  0  0  0  0  0  0  0
   41.8280   42.6320   30.3680 O   0  0  0  0  0  0  0  0  0  0  0  0
   42.4280   40.8390   31.8670 C   0  0  0  0  0  0  0  0  0  0  0  0
   38.1500   35.5870   33.0330 C   0  0  0  0  0  0  0  0  0  0  0  0
   39.9000   38.1680   32.0590 C   0  0  0  0  0  0  0  0  0  0  0  0
   42.0070   38.1920   31.8480 C   0  0  0  0  0  0  0  0  0  0  0  0
   43.3530   37.6430   30.8600 Cl  0  0  0  0  0  0  0  0  0  0  0  0
   36.7080   35.1560   34.8790 O   0  0  0  0  0  0  0  0  0  0  0  0
   38.6710   37.5250   31.6360 O   0  0  0  0  0  0  0  0  0  0  0  0
   40.7460   42.4800   32.6980 O   0  0  0  0  0  0  0  0  0  0  0  0
   36.7210   35.3430   33.6140 C   0  0  0  0  0  0  0  0  0  0  0  0
  2 10  1  0
  3  8  2  0
  3  9  1  0
  3 16  1  0
  4 17  2  0
  5  9  1  0
  7  5  1  0
  7 11  1  0
  9  6  1  0
 10 17  1  0
 11  1  2  0
 12 13  1  0
 12  5  1  0
 12  1  1  0
 15 11  1  0
 15  2  1  0
 17 14  1  0
M  END
$$$$

     RDKit          3D

  8  8  0  0  0  0  0  0  0  0999 V2000
   41.1400   40.3840   31.0710 N   0  0  0  0  0  0  0  0  0  0  0  0
   38.7150   39.1450   29.9040 O   0  0  0  0  0  0  0  0  0  0  0  0
   40.4130   38.0250   31.1880 C   0  0  0  0  0  0  0  0  0  0  0  0
   42.6820   38.7880   30.5440 O   0  0  0  0  0  0  0  0  0  0  0  0
   39.2870   39.0280   31.1920 C   0  0  0  0  0  0  0  0  0  0  0  0
   40.5470   36.8220   30.3870 O   0  0  0  0  0  0  0  0  0  0  0  0
   41.6510   38.8100   31.5080 C   0  0  0  0  0  0  0  0  0  0  0  0
   39.6420   40.4720   31.2990 C   0  0  0  0  0  0  0  0  0  0  0  0
  1  8  1  0
  1  7  1  0
  3  6  1  0
  3  5  1  0
  3  7  1  0
  5  2  1  0
  5  8  1  0
  7  4  1  0
M  END
$$$$

     RDKit          3D

 12 11  0  0  0  0  0  0  0  0999 V2000
   38.2100   34.6980   33.6920 C   0  0  0  0  0  0  0  0  0  0  0  0
   37.3210   33.1170   35.3320 C   0  0  0  0  0  0  0  0  0  0  0  0
   40.7190   37.8950   29.7170 C   0  0  0  0  0  0  0  0  0  0  0  0
   38.3010   33.7800   34.2520 C   0  0  0  0  0  0  0  0  0  0  0  0
   42.1230   38.0180   29.3000 O   0  0  0  0  0  0  0  0  0  0  0  0
   39.1310   36.7860   33.0000 C   0  0  0  0  0  0  0  0  0  0  0  0
   37.9690   35.8410   33.2250 C   0  0  0  0  0  0  0  0  0  0  0  0
   40.4900   37.9960   31.2380 C   0  0  0  0  0  0  0  0  0  0  0  0
   36.3570   32.1310   34.6580 C   0  0  0  0  0  0  0  0  0  0  0  0
   40.4300   37.8040   28.8290 O   0  0  0  0  0  0  0  0  0  0  0  0
   37.3200   30.9020   34.4860 C   0  0  0  0  0  0  0  0  0  0  0  0
   39.4450   36.9200   31.5110 C   0  0  0  0  0  0  0  0  0  0  0  0
  1  4  2  0
  3  8  1  0
  4  2  1  0
  5  3  1  0
  6  7  1  0
  7  1  2  0
  8 12  1  0
  9  2  1  0
 10  3  2  0
 11  9  1  0
 12  6  1  0
M  END
$$$$

     RDKit          3D

  9 10  0  0  0  0  0  0  0  0999 V2000
   38.8710   38.1360   34.3450 C   0  0  0  0  0  0  0  0  0  0  0  0
   39.1490   37.5270   33.0060 C   0  0  0  0  0  0  0  0  0  0  0  0
   38.6900   37.7440   31.7520 C   0  0  0  0  0  0  0  0  0  0  0  0
   37.4070   37.6820   32.3800 O   0  0  0  0  0  0  0  0  0  0  0  0
   40.7960   37.5980   30.5530 C   0  0  0  0  0  0  0  0  0  0  0  0
   40.9010   39.7190   34.0290 S   0  0  0  0  0  0  0  0  0  0  0  0
   40.2930   38.0780   33.7840 C   0  0  0  0  0  0  0  0  0  0  0  0
   39.8050   38.6060   31.1560 C   0  0  0  0  0  0  0  0  0  0  0  0
   42.0720   37.7520   30.0170 O   0  0  0  0  0  0  0  0  0  0  0  0
  2  7  1  0
  2  1  1  0
  3  8  1  0
  3  4  1  0
  3  2  1  0
  4  2  1  0
  5  8  1  0
  7  6  1  0
  7  1  1  0
  9  5  1  0
M  END
$$$$

     RDKit          3D

 16 17  0  0  0  0  0  0  0  0999 V2000
   39.2150   36.7120   32.4990 C   0  0  0  0  0  0  0  0  0  0  0  0
   41.0140   38.6260   32.4710 C   0  0  0  0  0  0  0  0  0  0  0  0
   42.5400   36.6970   32.4120 O   0  0  0  0  0  0  0  0  0  0  0  0
   38.1460   36.6400   33.4050 C   0  0  0  0  0  0  0  0  0  0  0  0
   38.2280   34.8170   32.3500 C   0  0  0  0  0  0  0  0  0  0  0  0
   37.9760   33.4550   31.8450 C   0  0  0  0  0  0  0  0  0  0  0  0
   41.9630   37.3430   30.2790 O   0  0  0  0  0  0  0  0  0  0  0  0
   37.4960   35.4500   33.2250 C   0  0  0  0  0  0  0  0  0  0  0  0
   36.2490   34.9910   33.6510 O   0  0  0  0  0  0  0  0  0  0  0  0
   40.0820   37.5970   32.0340 C   0  0  0  0  0  0  0  0  0  0  0  0
   34.7670   33.8890   35.1960 C   0  0  0  0  0  0  0  0  0  0  0  0
   41.7180   37.4480   31.5510 S   0  0  0  0  0  0  0  0  0  0  0  0
   34.8890   34.5570   33.8270 C   0  0  0  0  0  0  0  0  0  0  0  0
   38.7990   33.0170   30.8420 N   0  0  0  0  0  0  0  0  0  0  0  0
   39.2280   35.5090   31.9740 N   0  0  0  0  0  0  0  0  0  0  0  0
   36.9050   32.8110   32.2790 O   0  0  0  0  0  0  0  0  0  0  0  0
  1  4  1  0
  5  8  2  0
  6 16  2  0
  6  5  1  0
  7 12  2  0
  8  4  1  0
  8  9  1  0
  9 13  1  0
 10  2  1  0
 10  1  1  0
 12 10  1  0
 12  3  2  0
 12  2  1  0
 13 11  1  0
 14  6  1  0
 15  5  1  0
 15  1  2  0
M  END
$$$$

     RDKit          3D

 14 14  0  0  0  0  0  0  0  0999 V2000
   38.7350   38.5130   32.5850 O   0  0  0  0  0  0  0  0  0  0  0  0
   43.8750   39.3220   30.4280 O   0  0  0  0  0  0  0  0  0  0  0  0
   38.4870   37.4190   31.7210 C   0  0  0  0  0  0  0  0  0  0  0  0
   42.1330   38.7810   32.0270 C   0  0  0  0  0  0  0  0  0  0  0  0
   39.6280   36.4920   31.5250 C   0  0  0  0  0  0  0  0  0  0  0  0
   41.6870   39.7130   33.1010 C   0  0  0  0  0  0  0  0  0  0  0  0
   41.6670   42.2890   34.5240 O   0  0  0  0  0  0  0  0  0  0  0  0
   40.8330   37.1640   30.9330 C   0  0  0  0  0  0  0  0  0  0  0  0
   42.3870   40.9340   31.3210 O   0  0  0  0  0  0  0  0  0  0  0  0
   42.5710   39.5970   30.8280 C   0  0  0  0  0  0  0  0  0  0  0  0
   42.6910   40.8020   32.8230 C   0  0  0  0  0  0  0  0  0  0  0  0
   41.7500   37.6110   31.9210 N   0  0  0  0  0  0  0  0  0  0  0  0
   42.7540   42.0600   33.6800 C   0  0  0  0  0  0  0  0  0  0  0  0
   42.5160   43.2010   32.6750 O   0  0  0  0  0  0  0  0  0  0  0  0
  3  1  1  0
  4 12  1  0
  4  6  1  0
  5  3  1  0
  8  5  1  0
  8 12  1  0
  9 11  1  0
 10  2  1  0
 10  9  1  0
 10  4  1  0
 11  6  1  0
 11 13  1  0
 13  7  1  0
 14 13  1  0
M  END
$$$$

     RDKit          3D

  7  6  0  0  0  0  0  0  0  0999 V2000
   41.4090   38.5940   32.4740 N   0  0  0  0  0  0  0  0  0  0  0  0
   42.2720   39.9510   29.2590 O   0  0  0  0  0  0  0  0  0  0  0  0
   43.8510   40.7250   29.8650 O   0  0  0  0  0  0  0  0  0  0  0  0
   42.7320   38.1300   32.9230 C   0  0  0  0  0  0  0  0  0  0  0  0
   43.8090   38.7030   31.9590 C   0  0  0  0  0  0  0  0  0  0  0  0
   43.2550   39.6810   29.7070 C   0  0  0  0  0  0  0  0  0  0  0  0
   43.7180   38.4050   30.4620 C   0  0  0  0  0  0  0  0  0  0  0  0
  1  4  1  0
  2  6  2  0
  5  4  1  0
  6  3  1  0
  6  7  1  0
  7  5  1  0
M  END
$$$$

     RDKit          3D

 18 18  0  0  0  0  0  0  0  0999 V2000
   42.0690   42.4230   34.3240 C   0  0  0  0  0  0  0  0  0  0  0  0
   41.4740   35.7470   33.7720 O   0  0  0  0  0  0  0  0  0  0  0  0
   41.1230   38.0280   34.2960 C   0  0  0  0  0  0  0  0  0  0  0  0
   39.8550   33.9220   34.7160 N   0  0  0  0  0  0  0  0  0  0  0  0
   40.8820   34.8890   34.7350 C   0  0  0  0  0  0  0  0  0  0  0  0
   41.5360   34.8680   35.8400 O   0  0  0  0  0  0  0  0  0  0  0  0
   38.3920   34.2290   36.6930 O   0  0  0  0  0  0  0  0  0  0  0  0
   39.1010   33.2790   35.8630 C   0  0  0  0  0  0  0  0  0  0  0  0
   40.6170   40.4090   33.8350 C   0  0  0  0  0  0  0  0  0  0  0  0
   43.7100   36.8540   32.1690 O   0  0  0  0  0  0  0  0  0  0  0  0
   42.2290   35.8930   36.4380 C   0  0  0  0  0  0  0  0  0  0  0  0
   37.8610   31.1440   35.1060 N   0  0  0  0  0  0  0  0  0  0  0  0
   38.0020   32.4230   35.0370 C   0  0  0  0  0  0  0  0  0  0  0  0
   41.3330   39.4340   34.7560 C   0  0  0  0  0  0  0  0  0  0  0  0
   42.9170   36.9030   35.5280 C   0  0  0  0  0  0  0  0  0  0  0  0
   42.2060   36.9480   34.1470 C   0  0  0  0  0  0  0  0  0  0  0  0
   43.2100   37.1290   33.0970 C   0  0  0  0  0  0  0  0  0  0  0  0
   41.3680   41.5370   33.3730 C   0  0  0  0  0  0  0  0  0  0  0  0
  2 16  1  0
  2  5  1  0
  3 14  1  0
  4  8  1  0
  5  4  1  0
  5  6  1  0
  6 11  1  0
  8  7  1  0
  9 14  1  0
 10 17  2  0
 13 12  2  0
 13  8  1  0
 15 11  1  0
 16 17  1  0
 16  3  1  0
 16 15  1  0
 18  9  1  0
 18  1  1  0
M  END
$$$$

     RDKit          3D

 11 10  0  0  0  0  0  0  0  0999 V2000
   40.8900   37.8070   30.3870 C   0  0  0  0  0  0  0  0  0  0  0  0
   39.7080   38.3040   32.9150 C   0  0  0  0  0  0  0  0  0  0  0  0
   42.8870   40.9040   30.1980 C   0  0  0  0  0  0  0  0  0  0  0  0
   42.5140   39.1430   31.7140 O   0  0  0  0  0  0  0  0  0  0  0  0
   41.5410   36.5780   30.7030 O   0  0  0  0  0  0  0  0  0  0  0  0
   41.3150   39.7370   31.6230 C   0  0  0  0  0  0  0  0  0  0  0  0
   40.1990   38.6480   31.4730 C   0  0  0  0  0  0  0  0  0  0  0  0
   41.4050   40.5680   30.4070 N   0  0  0  0  0  0  0  0  0  0  0  0
   38.3760   37.7200   33.2900 C   0  0  0  0  0  0  0  0  0  0  0  0
   38.6930   36.3010   33.0980 O   0  0  0  0  0  0  0  0  0  0  0  0
   40.1780   38.5920   33.8880 O   0  0  0  0  0  0  0  0  0  0  0  0
  1  5  1  0
  2  9  1  0
  2 11  2  0
  3  8  1  0
  6  4  1  0
  7  1  1  0
  7  6  1  0
  7  2  1  0
  8  6  1  0
 10  9  1  0
M  END
$$$$

     RDKit          3D

 13 13  0  0  0  0  0  0  0  0999 V2000
   40.7690   38.7520   27.9930 C   0  0  0  0  0  0  0  0  0  0  0  0
   40.4160   42.1970   29.5670 O   0  0  0  0  0  0  0  0  0  0  0  0
   43.0140   38.7170   30.7510 C   0  0  0  0  0  0  0  0  0  0  0  0
   42.2760   39.7550   32.9400 C   0  0  0  0  0  0  0  0  0  0  0  0
   39.1240   41.4700   31.1420 O   0  0  0  0  0  0  0  0  0  0  0  0
   41.2470   40.4160   30.8600 C   0  0  0  0  0  0  0  0  0  0  0  0
   41.1610   40.2700   32.2910 N   0  0  0  0  0  0  0  0  0  0  0  0
   42.8590   40.6720   34.0330 C   0  0  0  0  0  0  0  0  0  0  0  0
   43.3030   39.3230   32.0400 O   0  0  0  0  0  0  0  0  0  0  0  0
   42.2340   41.2560   34.8430 O   0  0  0  0  0  0  0  0  0  0  0  0
   40.0150   41.0330   30.2660 C   0  0  0  0  0  0  0  0  0  0  0  0
   41.9080   39.4320   28.6830 N   0  0  0  0  0  0  0  0  0  0  0  0
   41.6810   39.1570   30.1360 C   0  0  0  0  0  0  0  0  0  0  0  0
  1 12  1  0
  2 11  1  0
  3  9  1  0
  4  8  1  0
  6 11  1  0
  6  7  1  0
  7  4  1  0
  8 10  2  0
  9  4  1  0
 11  5  1  0
 13 12  1  0
 13  3  1  0
 13  6  1  0
M  END
$$$$

     RDKit          3D

 24 24  0  0  0  0  0  0  0  0999 V2000
   37.2420   36.1350   32.6060 C   0  0  0  0  0  0  0  0  0  0  0  0
   39.6490   37.9290   31.8600 C   0  0  0  0  0  0  0  0  0  0  0  0
   38.5070   38.7870   31.9950 C   0  0  0  0  0  0  0  0  0  0  0  0
   34.0900   35.6130   33.2760 N   0  0  0  0  0  0  0  0  0  0  0  0
   32.1150   34.5250   33.7210 C   0  0  0  0  0  0  0  0  0  0  0  0
   38.4690   35.8160   32.1110 C   0  0  0  0  0  0  0  0  0  0  0  0
   31.9730   33.4530   32.6810 C   0  0  0  0  0  0  0  0  0  0  0  0
   44.2170   41.5500   32.4620 C   0  0  0  0  0  0  0  0  0  0  0  0
   45.4610   42.2560   31.9570 C   0  0  0  0  0  0  0  0  0  0  0  0
   33.0100   34.1780   34.9200 C   0  0  0  0  0  0  0  0  0  0  0  0
   40.8590   38.5930   31.8410 C   0  0  0  0  0  0  0  0  0  0  0  0
   33.8880   36.2020   31.9650 C   0  0  0  0  0  0  0  0  0  0  0  0
   36.7720   37.3720   32.9210 C   0  0  0  0  0  0  0  0  0  0  0  0
   31.6750   35.4130   33.6840 F   0  0  0  0  0  0  0  0  0  0  0  0
   43.9590   41.0360   30.3490 O   0  0  0  0  0  0  0  0  0  0  0  0
   35.1340   35.0020   33.8200 C   0  0  0  0  0  0  0  0  0  0  0  0
   42.9970   39.1970   31.4580 C   0  0  0  0  0  0  0  0  0  0  0  0
   43.8070   40.3550   31.6500 C   0  0  0  0  0  0  0  0  0  0  0  0
   36.2370   35.0380   32.7410 C   0  0  0  0  0  0  0  0  0  0  0  0
   39.5160   36.6290   31.6240 C   0  0  0  0  0  0  0  0  0  0  0  0
   34.4660   33.7390   34.5090 C   0  0  0  0  0  0  0  0  0  0  0  0
   45.0420   40.6870   33.6100 O   0  0  0  0  0  0  0  0  0  0  0  0
   41.7170   39.1570   30.8100 C   0  0  0  0  0  0  0  0  0  0  0  0
   37.3320   38.5360   32.5960 C   0  0  0  0  0  0  0  0  0  0  0  0
  1 19  1  0
  1 13  1  0
  2  3  1  0
  3 24  2  0
  4 16  1  0
  5  7  1  0
  5 10  1  0
  6  1  2  0
  8  9  1  0
  8 22  1  0
 11  2  1  0
 12  4  1  0
 14  5  1  0
 16 19  1  0
 16 21  1  0
 17 18  1  0
 18 15  1  0
 18  8  1  0
 20  2  2  0
 20  6  1  0
 21 10  1  0
 23 17  1  0
 23 11  1  0
 24 13  1  0
M  END
$$$$

     RDKit          3D

  7  6  0  0  0  0  0  0  0  0999 V2000
   44.3200   38.6780   33.0490 C   0  0  0  0  0  0  0  0  0  0  0  0
   43.2270   39.8970   33.3460 C   0  0  0  0  0  0  0  0  0  0  0  0
   41.1980   40.4580   32.5600 O   0  0  0  0  0  0  0  0  0  0  0  0
   43.3370   39.6240   34.7270 C   0  0  0  0  0  0  0  0  0  0  0  0
   42.1890   39.7320   32.3850 C   0  0  0  0  0  0  0  0  0  0  0  0
   44.1390   41.1470   32.9150 C   0  0  0  0  0  0  0  0  0  0  0  0
   42.2700   38.8770   31.3500 N   0  0  0  0  0  0  0  0  0  0  0  0
  1  2  1  0
  2  4  1  0
  5  3  2  0
  5  2  1  0
  6  2  1  0
  7  5  1  0
M  END
$$$$

     RDKit          3D

 13 13  0  0  0  0  0  0  0  0999 V2000
   40.1130   39.7550   33.3820 C   0  0  0  0  0  0  0  0  0  0  0  0
   39.6710   38.6600   32.7660 C   0  0  0  0  0  0  0  0  0  0  0  0
   39.6590   39.1550   31.3350 C   0  0  0  0  0  0  0  0  0  0  0  0
   39.3690   37.4570   32.9390 C   0  0  0  0  0  0  0  0  0  0  0  0
   41.9600   41.0910   33.1080 O   0  0  0  0  0  0  0  0  0  0  0  0
   36.4920   36.4850   31.6080 O   0  0  0  0  0  0  0  0  0  0  0  0
   42.2840   38.9200   33.9950 N   0  0  0  0  0  0  0  0  0  0  0  0
   38.4700   38.4550   31.0470 C   0  0  0  0  0  0  0  0  0  0  0  0
   38.4910   37.3410   31.8420 C   0  0  0  0  0  0  0  0  0  0  0  0
   37.7140   38.3010   29.8790 O   0  0  0  0  0  0  0  0  0  0  0  0
   37.5830   36.1990   31.9090 C   0  0  0  0  0  0  0  0  0  0  0  0
   38.1650   34.8320   32.1640 C   0  0  0  0  0  0  0  0  0  0  0  0
   41.6940   39.7780   33.1930 C   0  0  0  0  0  0  0  0  0  0  0  0
  2  4  1  0
  2  1  1  0
  3  2  1  0
  6 11  2  0
  8 10  1  0
  8  3  1  0
  8  9  1  0
  9 11  1  0
  9  4  1  0
 11 12  1  0
 13  5  1  0
 13  1  1  0
 13  7  1  0
M  END
$$$$

     RDKit          3D

 15 15  0  0  0  0  0  0  0  0999 V2000
   37.4980   35.3130   33.8070 C   0  0  0  0  0  0  0  0  0  0  0  0
   38.7240   37.5600   33.0450 C   0  0  0  0  0  0  0  0  0  0  0  0
   43.7320   41.5130   30.5490 O   0  0  0  0  0  0  0  0  0  0  0  0
   35.1650   35.3610   33.6620 N   0  0  0  0  0  0  0  0  0  0  0  0
   42.3280   38.3570   31.9860 C   0  0  0  0  0  0  0  0  0  0  0  0
   41.0050   40.2250   31.5570 C   0  0  0  0  0  0  0  0  0  0  0  0
   34.0390   36.1770   33.0330 C   0  0  0  0  0  0  0  0  0  0  0  0
   42.2040   39.7120   31.4140 C   0  0  0  0  0  0  0  0  0  0  0  0
   40.0500   38.2720   32.7990 C   0  0  0  0  0  0  0  0  0  0  0  0
   43.4530   40.4530   31.0930 C   0  0  0  0  0  0  0  0  0  0  0  0
   39.8700   39.5590   32.0520 C   0  0  0  0  0  0  0  0  0  0  0  0
   41.3060   37.6750   32.6800 C   0  0  0  0  0  0  0  0  0  0  0  0
   36.2910   36.2720   33.9200 C   0  0  0  0  0  0  0  0  0  0  0  0
   44.5350   40.1410   31.9390 O   0  0  0  0  0  0  0  0  0  0  0  0
   38.8690   36.4340   33.9980 C   0  0  0  0  0  0  0  0  0  0  0  0
  1 13  1  0
  1 15  1  0
  2 15  1  0
  3 10  2  0
  4 13  1  0
  5 12  1  0
  6 11  2  0
  7  4  1  0
  8  6  1  0
  8  5  2  0
  9  2  1  0
 10  8  1  0
 10 14  1  0
 11  9  1  0
 12  9  2  0
M  END
$$$$

     RDKit          3D

 20 20  0  0  0  0  0  0  0  0999 V2000
   36.9530   35.9360   33.1310 C   0  0  0  0  0  0  0  0  0  0  0  0
   42.0880   36.6560   30.5490 O   0  0  0  0  0  0  0  0  0  0  0  0
   34.3850   33.1490   34.7800 O   0  0  0  0  0  0  0  0  0  0  0  0
   36.8320   31.4670   32.1690 C   0  0  0  0  0  0  0  0  0  0  0  0
   35.9700   33.7500   33.0290 C   0  0  0  0  0  0  0  0  0  0  0  0
   37.0510   34.6000   32.7330 C   0  0  0  0  0  0  0  0  0  0  0  0
   41.4800   39.6250   30.8910 C   0  0  0  0  0  0  0  0  0  0  0  0
   38.1390   34.0950   32.0940 O   0  0  0  0  0  0  0  0  0  0  0  0
   35.8880   32.5200   32.4310 O   0  0  0  0  0  0  0  0  0  0  0  0
   40.6820   38.4010   31.2630 C   0  0  0  0  0  0  0  0  0  0  0  0
   33.5520   35.8660   34.1010 O   0  0  0  0  0  0  0  0  0  0  0  0
   38.9570   37.1890   32.4200 C   0  0  0  0  0  0  0  0  0  0  0  0
   39.3660   38.5110   31.8480 C   0  0  0  0  0  0  0  0  0  0  0  0
   41.2240   37.0800   31.2150 C   0  0  0  0  0  0  0  0  0  0  0  0
   38.6610   39.5370   31.9320 O   0  0  0  0  0  0  0  0  0  0  0  0
   37.7810   36.9550   32.7070 N   0  0  0  0  0  0  0  0  0  0  0  0
   35.1320   34.0450   34.1180 C   0  0  0  0  0  0  0  0  0  0  0  0
   34.8120   35.4500   34.1130 C   0  0  0  0  0  0  0  0  0  0  0  0
   35.9710   36.3070   33.9890 C   0  0  0  0  0  0  0  0  0  0  0  0
   42.6000   39.5250   31.5980 O   0  0  0  0  0  0  0  0  0  0  0  0
  1 19  1  0
  2 14  2  0
  4  9  1  0
  5 17  2  0
  6  5  1  0
  6  1  2  0
  7 20  1  0
  8  6  1  0
  9  5  1  0
 10  7  1  0
 10 13  1  0
 11 18  1  0
 12 16  2  3
 13 15  2  0
 13 12  1  0
 14 10  1  0
 16  1  1  0
 17  3  1  0
 18 17  1  0
 19 18  2  0
M  END
$$$$

     RDKit          3D

 11 11  0  0  0  0  0  0  0  0999 V2000
   41.4090   38.5610   30.9090 C   0  0  0  0  0  0  0  0  0  0  0  0
   39.1690   39.3000   31.6750 C   0  0  0  0  0  0  0  0  0  0  0  0
   42.9460   38.8220   30.5630 C   0  0  0  0  0  0  0  0  0  0  0  0
   40.9870   37.4410   30.0280 O   0  0  0  0  0  0  0  0  0  0  0  0
   43.5840   39.5520   31.5160 O   0  0  0  0  0  0  0  0  0  0  0  0
   39.5950   40.8630   30.1150 O   0  0  0  0  0  0  0  0  0  0  0  0
   39.1690   38.2420   33.7470 O   0  0  0  0  0  0  0  0  0  0  0  0
   39.6990   38.5180   32.6010 C   0  0  0  0  0  0  0  0  0  0  0  0
   41.1300   38.6760   32.4610 C   0  0  0  0  0  0  0  0  0  0  0  0
   40.2150   39.5900   30.5670 C   0  0  0  0  0  0  0  0  0  0  0  0
   41.8960   39.2120   33.3010 O   0  0  0  0  0  0  0  0  0  0  0  0
  1  4  1  0
  1  9  1  0
  2  8  1  0
  3  1  1  0
  3  5  1  0
  8  7  1  0
  9  8  1  0
  9 11  2  0
 10  6  1  0
 10  1  1  0
 10  2  1  0
M  END
$$$$

     RDKit          3D

  9  8  0  0  0  0  0  0  0  0999 V2000
   39.3750   39.3550   30.7970 C   0  0  0  0  0  0  0  0  0  0  0  0
   43.6320   41.0660   30.5900 C   0  0  0  0  0  0  0  0  0  0  0  0
   42.8900   39.8130   32.6600 O   0  0  0  0  0  0  0  0  0  0  0  0
   41.6240   38.9930   29.7120 C   0  0  0  0  0  0  0  0  0  0  0  0
   41.9100   37.8700   30.0570 O   0  0  0  0  0  0  0  0  0  0  0  0
   43.0040   42.0320   29.2580 S   0  0  0  0  0  0  0  0  0  0  0  0
   41.3310   40.7010   31.4360 N   0  0  0  0  0  0  0  0  0  0  0  0
   42.6380   40.4520   31.6490 C   0  0  0  0  0  0  0  0  0  0  0  0
   40.6720   39.9920   30.3380 C   0  0  0  0  0  0  0  0  0  0  0  0
  2  8  1  0
  4  5  2  0
  4  9  1  0
  6  2  1  0
  7  8  1  0
  8  3  2  0
  9  1  1  0
  9  7  1  0
M  END
$$$$
