
     RDKit          3D

 10 10  0  0  0  0  0  0  0  0999 V2000
   38.2910   35.5880   21.6070 C   0  0  0  0  0  0  0  0  0  0  0  0
   38.1990   37.1110   21.6730 N   0  0  0  0  0  0  0  0  0  0  0  0
   36.6240   38.7700   22.4200 N   0  0  0  0  0  0  0  0  0  0  0  0
   39.5430   35.1030   21.9290 C   0  0  0  0  0  0  0  0  0  0  0  0
   40.5700   37.2480   21.2030 N   0  0  0  0  0  0  0  0  0  0  0  0
   39.2310   37.9020   21.1630 C   0  0  0  0  0  0  0  0  0  0  0  0
   36.8470   37.4650   22.1970 C   0  0  0  0  0  0  0  0  0  0  0  0
   41.6450   38.2340   21.4370 C   0  0  0  0  0  0  0  0  0  0  0  0
   40.7120   35.9780   21.6020 C   0  0  0  0  0  0  0  0  0  0  0  0
   41.8840   35.5230   21.6910 O   0  0  0  0  0  0  0  0  0  0  0  0
  1  2  1  0
  1  4  1  0
  2  7  1  0
  5  8  1  0
  5  9  1  0
  6  5  1  0
  6  2  1  0
  7  3  1  0
  9 10  2  0
  9  4  1  0
M  END
$$$$

     RDKit          3D

 26 29  0  0  0  0  0  0  0  0999 V2000
   35.2820   30.5530   32.0570 C   0  0  0  0  0  0  0  0  0  0  0  0
   39.0460   39.3430   22.1520 C   0  0  0  0  0  0  0  0  0  0  0  0
   37.5690   31.4540   30.3620 N   0  0  0  0  0  0  0  0  0  0  0  0
   40.0810   38.5260   21.3450 N   0  0  0  0  0  0  0  0  0  0  0  0
   37.6720   37.2780   25.4180 C   0  0  0  0  0  0  0  0  0  0  0  0
   38.3410   32.3190   28.6180 C   0  0  0  0  0  0  0  0  0  0  0  0
   37.1600   36.2960   26.1680 N   0  0  0  0  0  0  0  0  0  0  0  0
   37.9660   38.3170   26.2000 C   0  0  0  0  0  0  0  0  0  0  0  0
   37.1950   32.5700   31.1030 C   0  0  0  0  0  0  0  0  0  0  0  0
   37.8740   33.8230   30.5560 C   0  0  0  0  0  0  0  0  0  0  0  0
   35.9380   32.3650   30.5660 C   0  0  0  0  0  0  0  0  0  0  0  0
   38.9030   39.9550   24.5880 C   0  0  0  0  0  0  0  0  0  0  0  0
   34.0950   30.5470   32.9620 C   0  0  0  0  0  0  0  0  0  0  0  0
   37.3870   38.0070   27.2840 O   0  0  0  0  0  0  0  0  0  0  0  0
   39.2640   38.8200   23.5840 C   0  0  0  0  0  0  0  0  0  0  0  0
   37.2940   36.7050   27.4190 C   0  0  0  0  0  0  0  0  0  0  0  0
   38.9750   39.5600   26.1160 C   0  0  0  0  0  0  0  0  0  0  0  0
   40.7180   38.5320   23.9800 C   0  0  0  0  0  0  0  0  0  0  0  0
   37.2840   34.8980   28.6390 N   0  0  0  0  0  0  0  0  0  0  0  0
   36.3290   29.7950   32.8090 C   0  0  0  0  0  0  0  0  0  0  0  0
   40.2970   37.1770   21.1370 C   0  0  0  0  0  0  0  0  0  0  0  0
   37.6420   33.5840   29.0820 C   0  0  0  0  0  0  0  0  0  0  0  0
   37.3290   36.0560   28.7410 C   0  0  0  0  0  0  0  0  0  0  0  0
   35.1330   31.1180   30.7740 C   0  0  0  0  0  0  0  0  0  0  0  0
   38.9970   40.6360   23.1610 C   0  0  0  0  0  0  0  0  0  0  0  0
   37.9410   32.4310   32.4810 C   0  0  0  0  0  0  0  0  0  0  0  0
  1 20  1  0
  1 13  1  0
  2  4  1  0
  2 25  1  0
  2 15  1  0
  3 11  1  0
  3  9  1  0
  5  7  1  0
  5  8  1  0
  7 16  2  0
  8 17  1  0
  8 14  1  0
  9 26  1  0
 10  9  1  0
 11 24  1  0
 11  9  1  0
 12 17  1  0
 14 16  1  0
 15 18  1  0
 15 12  1  0
 16 23  1  0
 19 23  1  0
 19 22  1  0
 21  4  1  0
 22  6  1  0
 22 10  1  0
 24  1  1  0
 25 15  1  0
 25 12  1  0
M  END
$$$$

     RDKit          3D

  9  9  0  0  0  0  0  0  0  0999 V2000
   42.1020   40.6680   26.5640 O   0  0  0  0  0  0  0  0  0  0  0  0
   38.4790   36.9550   24.4560 C   0  0  0  0  0  0  0  0  0  0  0  0
   39.7670   38.9030   25.2710 C   0  0  0  0  0  0  0  0  0  0  0  0
   41.2480   39.2440   24.9290 C   0  0  0  0  0  0  0  0  0  0  0  0
   39.7150   37.3780   25.1660 C   0  0  0  0  0  0  0  0  0  0  0  0
   42.4060   39.8200   27.3200 O   0  0  0  0  0  0  0  0  0  0  0  0
   37.6510   35.2710   23.2660 C   0  0  0  0  0  0  0  0  0  0  0  0
   41.8970   39.7040   26.1530 C   0  0  0  0  0  0  0  0  0  0  0  0
   38.3500   36.4950   23.1610 O   0  0  0  0  0  0  0  0  0  0  0  0
  1  6  1  0
  2  5  1  0
  4  3  1  0
  4  8  1  0
  5  3  1  0
  8  1  1  0
  8  6  1  0
  9  7  1  0
  9  2  1  0
M  END
$$$$

     RDKit          3D

  8  7  0  0  0  0  0  0  0  0999 V2000
   37.3330   35.7460   21.4570 C   0  0  0  0  0  0  0  0  0  0  0  0
   36.0210   37.8640   21.9740 O   0  0  0  0  0  0  0  0  0  0  0  0
   37.0550   37.2840   21.5860 C   0  0  0  0  0  0  0  0  0  0  0  0
   38.7710   34.8210   21.6840 C   0  0  0  0  0  0  0  0  0  0  0  0
   36.4980   34.6770   19.7170 C   0  0  0  0  0  0  0  0  0  0  0  0
   37.7700   38.0520   20.9430 O   0  0  0  0  0  0  0  0  0  0  0  0
   36.1480   35.5690   20.8360 C   0  0  0  0  0  0  0  0  0  0  0  0
   39.6160   34.8130   20.5390 O   0  0  0  0  0  0  0  0  0  0  0  0
  1  7  1  0
  1  3  1  0
  1  4  1  0
  3  2  1  0
  5  7  1  0
  6  3  2  0
  8  4  1  0
M  END
$$$$

     RDKit          3D

  1  0  0  0  0  0  0  0  0  0999 V2000
   64.4810 -123.3750   55.2070 C   0  0  0  0  0  0  0  0  0  0  0  0
M  END
$$$$

     RDKit          3D

 20 19  0  0  0  0  0  0  0  0999 V2000
   37.7200   36.3430   17.6800 C   0  0  0  0  0  0  0  0  0  0  0  0
   38.0540   36.6450   22.1070 C   0  0  0  0  0  0  0  0  0  0  0  0
   38.4970   37.7190   19.7920 C   0  0  0  0  0  0  0  0  0  0  0  0
   38.4460   36.9810   24.6830 C   0  0  0  0  0  0  0  0  0  0  0  0
   39.5570   36.9080   35.0710 C   0  0  0  0  0  0  0  0  0  0  0  0
   37.4160   35.4730   30.2400 C   0  0  0  0  0  0  0  0  0  0  0  0
   36.5440   35.2110   31.3270 C   0  0  0  0  0  0  0  0  0  0  0  0
   38.6510   36.1030   34.2430 N   0  0  0  0  0  0  0  0  0  0  0  0
   37.1860   35.5580   26.2930 C   0  0  0  0  0  0  0  0  0  0  0  0
   38.8300   37.6940   21.3210 C   0  0  0  0  0  0  0  0  0  0  0  0
   37.3880   35.7370   33.7930 C   0  0  0  0  0  0  0  0  0  0  0  0
   39.6730   35.9910   18.5980 O   0  0  0  0  0  0  0  0  0  0  0  0
   37.4150   35.5790   28.8050 C   0  0  0  0  0  0  0  0  0  0  0  0
   39.6460   37.0980   24.6340 O   0  0  0  0  0  0  0  0  0  0  0  0
   37.5010   37.0780   23.4700 C   0  0  0  0  0  0  0  0  0  0  0  0
   37.8120   36.8190   26.0220 N   0  0  0  0  0  0  0  0  0  0  0  0
   36.8530   35.1820   32.7210 C   0  0  0  0  0  0  0  0  0  0  0  0
   38.6600   36.6380   18.7280 C   0  0  0  0  0  0  0  0  0  0  0  0
   39.7680   35.5040   33.4810 C   0  0  0  0  0  0  0  0  0  0  0  0
   37.4170   35.0100   27.6690 C   0  0  0  0  0  0  0  0  0  0  0  0
  1 18  1  0
  2 15  1  0
  3 10  1  0
  4 16  1  0
  6  7  2  3
  7 17  1  0
  8  5  1  0
  9 20  1  0
 10  2  1  0
 11  8  1  0
 12 18  2  0
 13  6  1  0
 14  4  2  0
 15  4  1  0
 16  9  1  0
 17 11  1  0
 18  3  1  0
 19  8  1  0
 20 13  2  3
M  END
$$$$

     RDKit          3D

  9  9  0  0  0  0  0  0  0  0999 V2000
   35.5080   34.8890   26.6170 C   0  0  0  0  0  0  0  0  0  0  0  0
   35.0070   34.5680   22.4900 C   0  0  0  0  0  0  0  0  0  0  0  0
   34.8910   35.5450   21.6700 O   0  0  0  0  0  0  0  0  0  0  0  0
   34.3150   35.6710   26.0620 C   0  0  0  0  0  0  0  0  0  0  0  0
   36.7700   35.0820   25.8180 C   0  0  0  0  0  0  0  0  0  0  0  0
   35.2750   34.8640   23.8950 C   0  0  0  0  0  0  0  0  0  0  0  0
   36.5230   34.7120   24.4210 C   0  0  0  0  0  0  0  0  0  0  0  0
   35.1470   33.5480   21.9150 O   0  0  0  0  0  0  0  0  0  0  0  0
   34.1860   35.5920   24.5460 C   0  0  0  0  0  0  0  0  0  0  0  0
  2  6  1  0
  3  2  2  0
  4  1  1  0
  5  1  1  0
  6  7  2  0
  6  9  1  0
  7  5  1  0
  8  2  1  0
  9  4  1  0
M  END
$$$$

     RDKit          3D

  1  0  0  0  0  0  0  0  0  0999 V2000
   44.4310   37.9480   -3.5590 C   0  0  0  0  0  0  0  0  0  0  0  0
M  END
$$$$

     RDKit          3D

 13 13  0  0  0  0  0  0  0  0999 V2000
   35.5050   35.9110   24.9540 N   0  0  0  0  0  0  0  0  0  0  0  0
   35.8330   38.2300   25.4940 O   0  0  0  0  0  0  0  0  0  0  0  0
   34.0550   35.0110   23.2580 O   0  0  0  0  0  0  0  0  0  0  0  0
   35.2640   34.0520   23.1100 S   0  0  0  0  0  0  0  0  0  0  0  0
   33.0820   37.6560   22.9030 O   0  0  0  0  0  0  0  0  0  0  0  0
   33.1190   37.1350   24.2280 C   0  0  0  0  0  0  0  0  0  0  0  0
   36.3700   37.1250   25.1920 C   0  0  0  0  0  0  0  0  0  0  0  0
   37.3550   34.3790   25.3900 C   0  0  0  0  0  0  0  0  0  0  0  0
   34.2660   36.0970   24.2520 C   0  0  0  0  0  0  0  0  0  0  0  0
   36.3160   34.8580   24.2680 C   0  0  0  0  0  0  0  0  0  0  0  0
   35.6510   34.0190   21.6990 O   0  0  0  0  0  0  0  0  0  0  0  0
   37.3660   32.9700   25.5250 N   0  0  0  0  0  0  0  0  0  0  0  0
   35.6680   32.7370   23.4880 O   0  0  0  0  0  0  0  0  0  0  0  0
  1  7  1  0
  3  9  1  0
  4  3  1  0
  4 13  1  0
  4 10  1  0
  5  6  1  0
  7  2  2  0
  8 12  1  0
  9  6  1  0
  9  1  1  0
 10  1  1  0
 10  8  1  0
 11  4  1  0
M  END
$$$$

     RDKit          3D

 20 20  0  0  0  0  0  0  0  0999 V2000
   36.1520   36.9010   24.6300 C   0  0  0  0  0  0  0  0  0  0  0  0
   34.9240   34.5010   26.4790 O   0  0  0  0  0  0  0  0  0  0  0  0
   38.4520   35.5870   26.9250 C   0  0  0  0  0  0  0  0  0  0  0  0
   35.9970   34.9570   30.2130 C   0  0  0  0  0  0  0  0  0  0  0  0
   38.5830   35.1640   28.5320 C   0  0  0  0  0  0  0  0  0  0  0  0
   33.7810   34.9730   27.2120 C   0  0  0  0  0  0  0  0  0  0  0  0
   34.9570   36.9360   23.6920 C   0  0  0  0  0  0  0  0  0  0  0  0
   35.2070   34.8550   29.0740 C   0  0  0  0  0  0  0  0  0  0  0  0
   38.5000   37.4380   26.7710 S   0  0  0  0  0  0  0  0  0  0  0  0
   36.0290   34.8520   22.6320 C   0  0  0  0  0  0  0  0  0  0  0  0
   40.1540   36.9660   28.6660 C   0  0  0  0  0  0  0  0  0  0  0  0
   38.9070   36.4990   29.0130 N   0  0  0  0  0  0  0  0  0  0  0  0
   37.3630   34.8850   26.0850 C   0  0  0  0  0  0  0  0  0  0  0  0
   36.7440   33.2500   24.4030 F   0  0  0  0  0  0  0  0  0  0  0  0
   36.2570   34.1980   26.9540 C   0  0  0  0  0  0  0  0  0  0  0  0
   36.6380   33.3590   27.8220 O   0  0  0  0  0  0  0  0  0  0  0  0
   35.2630   36.1660   22.4080 C   0  0  0  0  0  0  0  0  0  0  0  0
   36.7830   35.5310   24.8500 C   0  0  0  0  0  0  0  0  0  0  0  0
   34.1020   34.1620   28.4880 C   0  0  0  0  0  0  0  0  0  0  0  0
   36.0730   34.3890   24.0710 C   0  0  0  0  0  0  0  0  0  0  0  0
  1 18  1  0
  2 15  1  0
  2  6  1  0
  3  9  1  0
  3  5  1  0
  5 12  1  0
  6 19  1  0
  7  1  1  0
  8  4  1  0
 10 20  1  0
 11 12  1  0
 13  3  1  0
 13 15  1  0
 15 16  2  0
 17 10  1  0
 17  7  1  0
 18 13  1  0
 19  8  1  0
 20 14  1  0
 20 18  1  0
M  END
$$$$

     RDKit          3D

 22 23  0  0  0  0  0  0  0  0999 V2000
   36.5900   31.8630   30.7140 C   0  0  0  0  0  0  0  0  0  0  0  0
   37.3130   38.9740   23.4980 C   0  0  0  0  0  0  0  0  0  0  0  0
   36.0030   37.1820   24.5360 C   0  0  0  0  0  0  0  0  0  0  0  0
   37.5700   35.6160   25.5700 C   0  0  0  0  0  0  0  0  0  0  0  0
   37.4210   34.1940   29.5810 C   0  0  0  0  0  0  0  0  0  0  0  0
   38.4440   39.3160   23.2100 O   0  0  0  0  0  0  0  0  0  0  0  0
   37.9080   36.7470   26.3160 N   0  0  0  0  0  0  0  0  0  0  0  0
   38.7360   35.9080   29.8580 C   0  0  0  0  0  0  0  0  0  0  0  0
   37.8100   31.1910   31.3020 C   0  0  0  0  0  0  0  0  0  0  0  0
   39.4220   36.8990   30.4880 O   0  0  0  0  0  0  0  0  0  0  0  0
   35.8300   35.4660   28.2020 C   0  0  0  0  0  0  0  0  0  0  0  0
   38.0850   37.9700   25.5620 C   0  0  0  0  0  0  0  0  0  0  0  0
   38.4740   34.7910   30.4010 N   0  0  0  0  0  0  0  0  0  0  0  0
   37.1790   35.0060   28.5990 N   0  0  0  0  0  0  0  0  0  0  0  0
   36.9410   32.8510   29.6870 C   0  0  0  0  0  0  0  0  0  0  0  0
   36.2730   35.7100   24.8340 C   0  0  0  0  0  0  0  0  0  0  0  0
   38.4750   36.7810   27.5070 C   0  0  0  0  0  0  0  0  0  0  0  0
   36.1060   39.5650   22.8740 C   0  0  0  0  0  0  0  0  0  0  0  0
   35.9300   32.1860   31.9900 C   0  0  0  0  0  0  0  0  0  0  0  0
   39.0120   31.5930   30.6680 O   0  0  0  0  0  0  0  0  0  0  0  0
   37.2250   37.9990   24.3930 N   0  0  0  0  0  0  0  0  0  0  0  0
   38.1660   35.9610   28.6030 C   0  0  0  0  0  0  0  0  0  0  0  0
  1  9  1  0
  1 19  1  0
  2 21  1  0
  3 16  1  0
  4  7  1  0
  5 15  1  0
  5 13  1  0
  6  2  2  0
  7 17  1  0
  8 13  1  0
  8 10  2  0
 11 14  1  0
 12  7  1  0
 14 22  1  0
 14  5  1  0
 15  1  1  0
 16  4  1  0
 17 22  2  3
 18  2  1  0
 20  9  1  0
 21  3  1  0
 21 12  1  0
 22  8  1  0
M  END
$$$$

     RDKit          3D

  8  7  0  0  0  0  0  0  0  0999 V2000
   35.9310   36.0020   22.7130 C   0  0  0  0  0  0  0  0  0  0  0  0
   37.0090   35.0150   23.0600 N   0  0  0  0  0  0  0  0  0  0  0  0
   36.7580   33.6270   22.4740 C   0  0  0  0  0  0  0  0  0  0  0  0
   37.4950   35.0870   24.1490 C   0  0  0  0  0  0  0  0  0  0  0  0
   33.8270   36.4600   21.7100 O   0  0  0  0  0  0  0  0  0  0  0  0
   34.4990   35.5350   22.1830 C   0  0  0  0  0  0  0  0  0  0  0  0
   38.0380   35.1620   21.8760 C   0  0  0  0  0  0  0  0  0  0  0  0
   34.0310   34.5490   22.7950 O   0  0  0  0  0  0  0  0  0  0  0  0
  1  2  1  0
  2  4  1  0
  3  2  1  0
  5  6  2  0
  6  1  1  0
  6  8  1  0
  7  2  1  0
M  END
$$$$

     RDKit          3D

 19 20  0  0  0  0  0  0  0  0999 V2000
   33.7520   34.4850   29.1800 C   0  0  0  0  0  0  0  0  0  0  0  0
   34.9580   34.2470   28.6490 C   0  0  0  0  0  0  0  0  0  0  0  0
   39.5220   35.6010   24.8960 C   0  0  0  0  0  0  0  0  0  0  0  0
   33.7230   35.7280   27.3870 C   0  0  0  0  0  0  0  0  0  0  0  0
   35.0060   35.0190   27.5170 C   0  0  0  0  0  0  0  0  0  0  0  0
   33.0640   35.4260   28.3690 N   0  0  0  0  0  0  0  0  0  0  0  0
   32.7350   34.0870   30.2060 O   0  0  0  0  0  0  0  0  0  0  0  0
   37.2440   33.2670   24.8180 O   0  0  0  0  0  0  0  0  0  0  0  0
   41.7600   35.6150   24.7450 O   0  0  0  0  0  0  0  0  0  0  0  0
   37.9910   35.0520   26.7820 N   0  0  0  0  0  0  0  0  0  0  0  0
   37.1010   34.7230   24.5680 C   0  0  0  0  0  0  0  0  0  0  0  0
   33.1280   33.0050   31.0590 C   0  0  0  0  0  0  0  0  0  0  0  0
   37.9030   33.8440   27.2540 C   0  0  0  0  0  0  0  0  0  0  0  0
   40.8450   37.5920   25.3150 O   0  0  0  0  0  0  0  0  0  0  0  0
   35.8410   35.5200   26.3930 C   0  0  0  0  0  0  0  0  0  0  0  0
   37.0190   35.6190   25.8230 C   0  0  0  0  0  0  0  0  0  0  0  0
   40.7800   36.4000   24.8770 C   0  0  0  0  0  0  0  0  0  0  0  0
   39.2700   35.4170   26.3390 C   0  0  0  0  0  0  0  0  0  0  0  0
   37.6940   34.8490   28.2660 C   0  0  0  0  0  0  0  0  0  0  0  0
  1  7  1  0
  2  1  1  0
  3 18  1  0
  4  5  2  0
  4  6  1  0
  5  2  1  0
  6  1  2  0
  7 12  1  0
  9 17  2  0
 10 13  1  0
 10 19  1  0
 11  8  1  0
 13 19  1  0
 15  5  1  0
 16 11  1  0
 16 15  1  0
 16 10  1  0
 17  3  1  0
 17 14  1  0
 18 10  1  0
M  END
$$$$

     RDKit          3D

 13 13  0  0  0  0  0  0  0  0999 V2000
   37.6370   32.5690   30.1400 C   0  0  0  0  0  0  0  0  0  0  0  0
   37.2810   33.1530   31.2600 O   0  0  0  0  0  0  0  0  0  0  0  0
   36.6160   35.6140   26.8140 C   0  0  0  0  0  0  0  0  0  0  0  0
   37.1490   35.3830   33.3050 O   0  0  0  0  0  0  0  0  0  0  0  0
   37.9360   33.9180   28.9130 N   0  0  0  0  0  0  0  0  0  0  0  0
   37.5670   35.0190   27.9630 C   0  0  0  0  0  0  0  0  0  0  0  0
   36.1720   33.7860   34.6150 C   0  0  0  0  0  0  0  0  0  0  0  0
   37.8320   32.7530   28.6120 C   0  0  0  0  0  0  0  0  0  0  0  0
   36.3000   33.0690   32.3780 C   0  0  0  0  0  0  0  0  0  0  0  0
   37.3870   34.3800   26.6010 C   0  0  0  0  0  0  0  0  0  0  0  0
   37.3190   31.4300   30.5850 O   0  0  0  0  0  0  0  0  0  0  0  0
   36.0680   34.2930   33.2040 C   0  0  0  0  0  0  0  0  0  0  0  0
   35.2840   35.2460   32.8620 O   0  0  0  0  0  0  0  0  0  0  0  0
  1 11  2  0
  1  2  1  0
  2  9  1  0
  3  6  1  0
  6  5  1  0
  8  5  1  0
  8  1  1  0
  9 12  1  0
 10  3  1  0
 10  6  1  0
 12  4  1  0
 12  7  1  0
 13 12  1  0
M  END
$$$$

     RDKit          3D

 11 12  0  0  0  0  0  0  0  0999 V2000
   35.9040   36.6760   21.9090 C   0  0  0  0  0  0  0  0  0  0  0  0
   34.8030   35.3890   23.4930 N   0  0  0  0  0  0  0  0  0  0  0  0
   36.8540   38.7760   20.9540 C   0  0  0  0  0  0  0  0  0  0  0  0
   37.8470   34.1840   21.3700 O   0  0  0  0  0  0  0  0  0  0  0  0
   37.0960   35.3190   23.6300 C   0  0  0  0  0  0  0  0  0  0  0  0
   36.5430   38.0340   22.2400 C   0  0  0  0  0  0  0  0  0  0  0  0
   35.3770   36.4060   20.8420 O   0  0  0  0  0  0  0  0  0  0  0  0
   36.4980   33.5650   21.3700 O   0  0  0  0  0  0  0  0  0  0  0  0
   37.0980   34.4430   22.3810 C   0  0  0  0  0  0  0  0  0  0  0  0
   36.1430   35.5190   22.8740 C   0  0  0  0  0  0  0  0  0  0  0  0
   36.9430   34.4090   24.7260 O   0  0  0  0  0  0  0  0  0  0  0  0
  1  6  1  0
  1 10  1  0
  3  6  1  0
  4  8  1  0
  4  9  1  0
  5 11  1  0
  7  1  2  0
  8  9  1  0
  9 10  1  0
  9  5  1  0
 10  2  1  0
 10  5  1  0
M  END
$$$$

     RDKit          3D

 29 28  0  0  0  0  0  0  0  0999 V2000
   38.9490   36.1050   24.6670 C   0  0  0  0  0  0  0  0  0  0  0  0
   38.7900   37.2270   22.6150 C   0  0  0  0  0  0  0  0  0  0  0  0
   39.4660   37.5400   21.3760 C   0  0  0  0  0  0  0  0  0  0  0  0
   36.0730   35.5630   32.7390 C   0  0  0  0  0  0  0  0  0  0  0  0
   39.6040   36.6420   23.5990 N   0  0  0  0  0  0  0  0  0  0  0  0
   41.6030   36.2430   21.4950 C   0  0  0  0  0  0  0  0  0  0  0  0
   35.5590   33.9030   35.3370 C   0  0  0  0  0  0  0  0  0  0  0  0
   36.4950   36.2870   33.8230 O   0  0  0  0  0  0  0  0  0  0  0  0
   37.6460   35.3800   24.5540 C   0  0  0  0  0  0  0  0  0  0  0  0
   37.5640   33.5310   34.0940 O   0  0  0  0  0  0  0  0  0  0  0  0
   39.3160   36.4730   25.8450 O   0  0  0  0  0  0  0  0  0  0  0  0
   36.1090   35.6040   31.2520 C   0  0  0  0  0  0  0  0  0  0  0  0
   37.4130   34.4720   25.7760 C   0  0  0  0  0  0  0  0  0  0  0  0
   41.0240   37.6620   21.6650 C   0  0  0  0  0  0  0  0  0  0  0  0
   39.1640   38.6310   20.3500 C   0  0  0  0  0  0  0  0  0  0  0  0
   36.1560   33.6140   33.9690 C   0  0  0  0  0  0  0  0  0  0  0  0
   36.0680   37.4770   34.4080 C   0  0  0  0  0  0  0  0  0  0  0  0
   36.9820   35.1840   26.8820 C   0  0  0  0  0  0  0  0  0  0  0  0
   38.0180   36.9880   31.1650 N   0  0  0  0  0  0  0  0  0  0  0  0
   35.5650   32.3980   33.8440 O   0  0  0  0  0  0  0  0  0  0  0  0
   40.0150   39.2990   19.7540 N   0  0  0  0  0  0  0  0  0  0  0  0
   38.5150   39.6550   20.7380 O   0  0  0  0  0  0  0  0  0  0  0  0
   38.0050   33.9420   30.6310 O   0  0  0  0  0  0  0  0  0  0  0  0
   37.5390   35.6310   30.6300 C   0  0  0  0  0  0  0  0  0  0  0  0
   37.4220   35.8930   29.1260 C   0  0  0  0  0  0  0  0  0  0  0  0
   37.7100   37.7540   22.9910 O   0  0  0  0  0  0  0  0  0  0  0  0
   37.1160   34.9830   28.1980 C   0  0  0  0  0  0  0  0  0  0  0  0
   38.2690   37.7630   19.3030 C   0  0  0  0  0  0  0  0  0  0  0  0
   35.8400   34.3290   32.7540 O   0  0  0  0  0  0  0  0  0  0  0  0
  1 11  2  0
  2 26  2  0
  2  5  1  0
  3 14  1  0
  3  2  1  0
  4 12  1  0
  4 29  1  0
  4  8  1  0
  5  1  1  0
  6 14  1  0
  8 17  1  0
  9  1  1  0
  9 13  1  0
 13 18  1  0
 15 28  1  0
 15 22  1  0
 15  3  1  0
 16 10  1  0
 16  7  1  0
 18 27  1  0
 20 16  1  0
 21 15  1  0
 24 23  1  0
 24 19  1  0
 24 12  1  0
 25 24  1  0
 27 25  2  3
 29 16  1  0
M  END
$$$$

     RDKit          3D

 12 12  0  0  0  0  0  0  0  0999 V2000
   35.5000   35.4000   24.0070 N   0  0  0  0  0  0  0  0  0  0  0  0
   33.7460   35.9780   25.6670 C   0  0  0  0  0  0  0  0  0  0  0  0
   37.1530   34.3750   25.9180 C   0  0  0  0  0  0  0  0  0  0  0  0
   36.8450   35.3160   23.5300 C   0  0  0  0  0  0  0  0  0  0  0  0
   34.1020   34.6400   28.3220 C   0  0  0  0  0  0  0  0  0  0  0  0
   35.5080   34.8780   27.8650 C   0  0  0  0  0  0  0  0  0  0  0  0
   35.8220   34.9290   26.4200 C   0  0  0  0  0  0  0  0  0  0  0  0
   35.0160   35.4170   25.5070 C   0  0  0  0  0  0  0  0  0  0  0  0
   33.5210   36.7750   24.6310 O   0  0  0  0  0  0  0  0  0  0  0  0
   32.9400   35.1210   27.8850 C   0  0  0  0  0  0  0  0  0  0  0  0
   31.8200   34.8650   28.5760 O   0  0  0  0  0  0  0  0  0  0  0  0
   32.7960   35.7530   26.6450 C   0  0  0  0  0  0  0  0  0  0  0  0
  1  8  1  0
  2 12  1  0
  3  7  1  0
  4  1  1  0
  6  5  1  0
  7  6  2  0
  8  2  2  0
  8  7  1  0
  9  2  1  0
 10  5  2  0
 10 11  1  0
 12 10  1  0
M  END
$$$$

     RDKit          3D

 21 23  0  0  0  0  0  0  0  0999 V2000
   34.6870   37.1620   24.7630 C   0  0  0  0  0  0  0  0  0  0  0  0
   36.3210   33.7660   23.2290 C   0  0  0  0  0  0  0  0  0  0  0  0
   36.5650   33.6660   21.9960 O   0  0  0  0  0  0  0  0  0  0  0  0
   35.6120   34.9990   23.7510 C   0  0  0  0  0  0  0  0  0  0  0  0
   38.5670   35.1650   30.2680 O   0  0  0  0  0  0  0  0  0  0  0  0
   37.2080   35.5930   28.3770 C   0  0  0  0  0  0  0  0  0  0  0  0
   36.6200   37.0470   26.6160 C   0  0  0  0  0  0  0  0  0  0  0  0
   36.6550   34.4310   26.1780 O   0  0  0  0  0  0  0  0  0  0  0  0
   35.6670   36.0940   22.6780 C   0  0  0  0  0  0  0  0  0  0  0  0
   37.4520   35.0710   29.7240 C   0  0  0  0  0  0  0  0  0  0  0  0
   38.6170   37.4480   28.6620 C   0  0  0  0  0  0  0  0  0  0  0  0
   36.4930   32.7690   23.9770 O   0  0  0  0  0  0  0  0  0  0  0  0
   35.8160   37.6910   23.3770 S   0  0  0  0  0  0  0  0  0  0  0  0
   35.9760   33.6420   30.9380 O   0  0  0  0  0  0  0  0  0  0  0  0
   35.7410   36.5870   25.6440 C   0  0  0  0  0  0  0  0  0  0  0  0
   37.7320   36.7730   27.6310 C   0  0  0  0  0  0  0  0  0  0  0  0
   36.2170   34.2340   29.8460 C   0  0  0  0  0  0  0  0  0  0  0  0
   34.8420   32.7920   28.2570 C   0  0  0  0  0  0  0  0  0  0  0  0
   35.6980   33.9230   28.5100 C   0  0  0  0  0  0  0  0  0  0  0  0
   36.4660   34.7120   27.5510 C   0  0  0  0  0  0  0  0  0  0  0  0
   36.0400   35.2350   25.1740 C   0  0  0  0  0  0  0  0  0  0  0  0
  1 15  1  0
  2 12  1  0
  3  2  2  0
  4  2  1  0
  4 21  1  0
  6 10  1  0
  7 16  2  0
  8 20  1  0
  9 13  1  0
  9  4  1  0
 10 17  1  0
 10  5  2  0
 13  1  1  0
 15  7  1  0
 16  6  1  0
 16 11  1  0
 17 14  2  0
 19 18  1  0
 19 17  1  0
 20  6  2  0
 20 19  1  0
 21 15  2  0
 21  8  1  0
M  END
$$$$

     RDKit          3D

 18 17  0  0  0  0  0  0  0  0999 V2000
   37.1330   34.7170   30.7760 C   0  0  0  0  0  0  0  0  0  0  0  0
   38.7630   35.1180   27.3730 C   0  0  0  0  0  0  0  0  0  0  0  0
   36.0150   36.9810   21.0250 C   0  0  0  0  0  0  0  0  0  0  0  0
   38.3080   35.4490   28.8100 C   0  0  0  0  0  0  0  0  0  0  0  0
   35.8970   33.2140   32.3590 C   0  0  0  0  0  0  0  0  0  0  0  0
   39.0430   35.7450   24.2630 N   0  0  0  0  0  0  0  0  0  0  0  0
   37.4230   34.4540   29.4120 C   0  0  0  0  0  0  0  0  0  0  0  0
   39.3020   35.9300   26.3930 O   0  0  0  0  0  0  0  0  0  0  0  0
   35.8740   35.7360   32.6120 C   0  0  0  0  0  0  0  0  0  0  0  0
   34.7920   35.7140   32.8490 O   0  0  0  0  0  0  0  0  0  0  0  0
   35.8120   37.2580   20.1030 C   0  0  0  0  0  0  0  0  0  0  0  0
   36.1620   34.6080   31.7610 C   0  0  0  0  0  0  0  0  0  0  0  0
   37.5100   36.8300   23.0530 C   0  0  0  0  0  0  0  0  0  0  0  0
   38.9100   34.2360   27.0280 O   0  0  0  0  0  0  0  0  0  0  0  0
   36.6110   36.7550   32.9610 C   0  0  0  0  0  0  0  0  0  0  0  0
   39.8480   35.3040   25.2390 C   0  0  0  0  0  0  0  0  0  0  0  0
   37.1950   36.3940   21.6900 C   0  0  0  0  0  0  0  0  0  0  0  0
   38.2840   35.4030   23.2550 C   0  0  0  0  0  0  0  0  0  0  0  0
  1 12  1  0
  2  4  1  0
  3 17  1  0
  4  7  1  0
  6 16  1  0
  7  1  1  0
  8  2  1  0
  9 10  2  0
  9 15  1  0
 11  3  2  0
 12  5  1  0
 12  9  1  0
 13 18  1  0
 14  2  2  0
 16  8  1  0
 17 13  1  0
 18  6  1  0
M  END
$$$$

     RDKit          3D

  8  8  0  0  0  0  0  0  0  0999 V2000
   37.3600   35.4520   22.8400 C   0  0  0  0  0  0  0  0  0  0  0  0
   35.7290   36.3840   21.5630 O   0  0  0  0  0  0  0  0  0  0  0  0
   36.7370   36.1520   24.0060 N   0  0  0  0  0  0  0  0  0  0  0  0
   35.9120   33.5180   23.5450 O   0  0  0  0  0  0  0  0  0  0  0  0
   35.3820   35.0080   21.6100 C   0  0  0  0  0  0  0  0  0  0  0  0
   37.1360   36.4060   21.7530 O   0  0  0  0  0  0  0  0  0  0  0  0
   36.3650   34.3570   22.5400 C   0  0  0  0  0  0  0  0  0  0  0  0
   34.5040   34.4820   20.9690 O   0  0  0  0  0  0  0  0  0  0  0  0
  1  3  1  0
  2  5  1  0
  2  6  1  0
  5  7  1  0
  6  1  1  0
  7  1  1  0
  7  4  1  0
  8  5  2  0
M  END
$$$$
