
     RDKit          3D

 12 11  0  0  0  0  0  0  0  0999 V2000
   41.1010   34.3980   26.1880 O   0  0  0  0  0  0  0  0  0  0  0  0
   41.9480   38.3070   24.5350 C   0  0  0  0  0  0  0  0  0  0  0  0
   42.1160   37.5950   25.7890 C   0  0  0  0  0  0  0  0  0  0  0  0
   39.7730   38.7720   26.7090 O   0  0  0  0  0  0  0  0  0  0  0  0
   40.9530   37.1410   26.5340 C   0  0  0  0  0  0  0  0  0  0  0  0
   42.5120   35.1400   28.5360 O   0  0  0  0  0  0  0  0  0  0  0  0
   40.8220   33.3720   28.2290 O   0  0  0  0  0  0  0  0  0  0  0  0
   39.1590   36.0500   27.7400 O   0  0  0  0  0  0  0  0  0  0  0  0
   40.6000   36.3460   27.5040 C   0  0  0  0  0  0  0  0  0  0  0  0
   41.3200   34.7330   27.6270 P   0  0  0  0  0  0  0  0  0  0  0  0
   39.7000   37.9670   26.1240 C   0  0  0  0  0  0  0  0  0  0  0  0
   40.8370   38.1260   23.7470 O   0  0  0  0  0  0  0  0  0  0  0  0
  1 10  2  0
  2  3  1  0
  5  3  1  0
  5  9  1  0
  9 10  1  0
  9  8  1  0
 10  7  1  0
 10  6  1  0
 11  5  1  0
 11  4  1  0
 12  2  1  0
M  END
$$$$

     RDKit          3D

 10  9  0  0  0  0  0  0  0  0999 V2000
   41.3740   38.9100   27.7960 O   0  0  0  0  0  0  0  0  0  0  0  0
   42.3350   33.5310   27.0290 O   0  0  0  0  0  0  0  0  0  0  0  0
   39.6280   36.2230   28.3300 O   0  0  0  0  0  0  0  0  0  0  0  0
   41.6410   34.5660   27.7870 C   0  0  0  0  0  0  0  0  0  0  0  0
   41.3070   35.6130   26.7650 C   0  0  0  0  0  0  0  0  0  0  0  0
   41.0350   38.2830   25.8300 O   0  0  0  0  0  0  0  0  0  0  0  0
   40.5300   36.6100   27.4950 C   0  0  0  0  0  0  0  0  0  0  0  0
   42.7360   36.1710   26.5620 O   0  0  0  0  0  0  0  0  0  0  0  0
   41.2000   37.9500   27.3130 C   0  0  0  0  0  0  0  0  0  0  0  0
   41.8610   35.2370   28.9950 O   0  0  0  0  0  0  0  0  0  0  0  0
  2  4  2  0
  4 10  1  0
  5  8  1  0
  5  7  1  0
  5  4  1  0
  6  9  2  0
  7  3  1  0
  9  7  1  0
  9  1  1  0
M  END
$$$$

     RDKit          3D

 18 19  0  0  0  0  0  0  0  0999 V2000
   41.5890   34.8900   28.1320 C   0  0  0  0  0  0  0  0  0  0  0  0
   40.0540   36.6960   29.1320 N   0  0  0  0  0  0  0  0  0  0  0  0
   33.3490   36.5640   30.3070 N   0  0  0  0  0  0  0  0  0  0  0  0
   30.6710   36.8630   28.7570 C   0  0  0  0  0  0  0  0  0  0  0  0
   36.5230   37.2660   29.1850 C   0  0  0  0  0  0  0  0  0  0  0  0
   33.4450   37.9910   28.4490 C   0  0  0  0  0  0  0  0  0  0  0  0
   39.7440   34.6520   29.6890 C   0  0  0  0  0  0  0  0  0  0  0  0
   31.1970   36.2790   26.5750 O   0  0  0  0  0  0  0  0  0  0  0  0
   41.3180   36.3650   28.5060 C   0  0  0  0  0  0  0  0  0  0  0  0
   31.5110   35.9250   27.9130 C   0  0  0  0  0  0  0  0  0  0  0  0
   37.4080   34.6810   29.3840 C   0  0  0  0  0  0  0  0  0  0  0  0
   40.3340   34.1020   28.3720 C   0  0  0  0  0  0  0  0  0  0  0  0
   37.8330   37.0700   29.0360 C   0  0  0  0  0  0  0  0  0  0  0  0
   36.0120   34.9690   29.1150 N   0  0  0  0  0  0  0  0  0  0  0  0
   35.4570   36.2230   29.0770 C   0  0  0  0  0  0  0  0  0  0  0  0
   32.9770   35.4850   28.0730 C   0  0  0  0  0  0  0  0  0  0  0  0
   33.8520   36.5160   28.9220 C   0  0  0  0  0  0  0  0  0  0  0  0
   38.6840   35.7680   29.3600 C   0  0  0  0  0  0  0  0  0  0  0  0
  1 12  1  0
  1  9  1  0
  2 18  1  0
  8 10  1  0
  9  2  2  0
 10 16  1  0
 10  4  1  0
 12  7  1  0
 13  5  2  0
 13 18  1  0
 14 11  1  0
 15 14  2  0
 15  5  1  0
 16 17  1  0
 17  6  1  0
 17 15  1  0
 17  3  1  0
 18 11  2  0
 18  7  1  0
M  END
$$$$

     RDKit          3D

  1  0  0  0  0  0  0  0  0  0999 V2000
   48.4370   61.4690   28.4140 C   0  0  0  0  0  0  0  0  0  0  0  0
M  END
$$$$

     RDKit          3D

 19 19  0  0  0  0  0  0  0  0999 V2000
   41.6500   35.5280   27.7160 C   0  0  0  0  0  0  0  0  0  0  0  0
   34.3780   30.6090   29.4800 O   0  0  0  0  0  0  0  0  0  0  0  0
   39.3430   37.5040   29.0400 C   0  0  0  0  0  0  0  0  0  0  0  0
   41.4250   39.2070   26.8990 C   0  0  0  0  0  0  0  0  0  0  0  0
   40.4960   37.7340   28.4380 C   0  0  0  0  0  0  0  0  0  0  0  0
   34.5880   31.3720   31.6300 C   0  0  0  0  0  0  0  0  0  0  0  0
   36.9410   34.1010   30.8820 C   0  0  0  0  0  0  0  0  0  0  0  0
   40.9550   34.9680   28.7640 C   0  0  0  0  0  0  0  0  0  0  0  0
   38.6890   36.1370   29.3580 C   0  0  0  0  0  0  0  0  0  0  0  0
   35.4170   32.3760   31.1670 C   0  0  0  0  0  0  0  0  0  0  0  0
   39.2990   33.8820   30.1530 C   0  0  0  0  0  0  0  0  0  0  0  0
   38.0110   33.6070   30.1820 O   0  0  0  0  0  0  0  0  0  0  0  0
   40.9620   37.7950   26.9890 N   0  0  0  0  0  0  0  0  0  0  0  0
   36.4000   33.1650   31.9630 C   0  0  0  0  0  0  0  0  0  0  0  0
   33.8210   30.5870   30.7460 N   0  0  0  0  0  0  0  0  0  0  0  0
   36.3140   35.0780   30.5450 O   0  0  0  0  0  0  0  0  0  0  0  0
   41.4860   36.4760   26.4610 C   0  0  0  0  0  0  0  0  0  0  0  0
   34.5250   31.1350   32.8360 O   0  0  0  0  0  0  0  0  0  0  0  0
   39.5530   34.9720   29.2100 N   0  0  0  0  0  0  0  0  0  0  0  0
  1  8  2  0
  2 15  1  0
  3  9  2  0
  4 13  1  0
  5  3  1  0
  6 18  2  0
  7 14  1  0
  8 19  1  0
 10  6  1  0
 10 14  1  0
 11 12  1  0
 12  7  1  0
 13  5  1  0
 15  6  1  0
 16  7  2  0
 17 13  1  0
 17  1  1  0
 19  9  1  0
 19 11  1  0
M  END
$$$$

     RDKit          3D

 13 14  0  0  0  0  0  0  0  0999 V2000
   40.7410   34.7910   29.7400 C   0  0  0  0  0  0  0  0  0  0  0  0
   39.7130   36.8180   28.6360 C   0  0  0  0  0  0  0  0  0  0  0  0
   41.0380   37.2970   28.1200 C   0  0  0  0  0  0  0  0  0  0  0  0
   38.5840   37.5420   28.4400 C   0  0  0  0  0  0  0  0  0  0  0  0
   36.9300   35.1200   29.7910 C   0  0  0  0  0  0  0  0  0  0  0  0
   39.5350   35.6280   29.4160 C   0  0  0  0  0  0  0  0  0  0  0  0
   35.7740   34.4510   30.1420 C   0  0  0  0  0  0  0  0  0  0  0  0
   35.1040   36.2520   28.9730 C   0  0  0  0  0  0  0  0  0  0  0  0
   41.2130   34.0580   28.5630 C   0  0  0  0  0  0  0  0  0  0  0  0
   37.2490   37.2190   28.5330 C   0  0  0  0  0  0  0  0  0  0  0  0
   38.3350   35.0700   29.9530 C   0  0  0  0  0  0  0  0  0  0  0  0
   36.5050   36.1950   29.0810 C   0  0  0  0  0  0  0  0  0  0  0  0
   34.6610   35.1540   29.6440 C   0  0  0  0  0  0  0  0  0  0  0  0
  2  6  1  0
  3  2  1  0
  4 10  1  0
  4  2  2  0
  5 11  1  0
  5  7  2  0
  6  1  1  0
  6 11  2  0
  8 12  1  0
  8 13  2  0
  9  1  1  0
 10 12  2  0
 12  5  1  0
 13  7  1  0
M  END
$$$$

     RDKit          3D

  9  9  0  0  0  0  0  0  0  0999 V2000
   37.1700   33.8110   30.2200 C   0  0  0  0  0  0  0  0  0  0  0  0
   33.9620   34.6050   31.5910 C   0  0  0  0  0  0  0  0  0  0  0  0
   37.7880   32.5500   30.2260 C   0  0  0  0  0  0  0  0  0  0  0  0
   35.9050   33.7220   30.4910 N   0  0  0  0  0  0  0  0  0  0  0  0
   36.9700   30.6440   30.3660 C   0  0  0  0  0  0  0  0  0  0  0  0
   35.4820   32.4860   30.6460 C   0  0  0  0  0  0  0  0  0  0  0  0
   36.6810   31.8420   30.4660 C   0  0  0  0  0  0  0  0  0  0  0  0
   35.0020   34.9040   30.5090 C   0  0  0  0  0  0  0  0  0  0  0  0
   37.8560   34.8500   29.9800 O   0  0  0  0  0  0  0  0  0  0  0  0
  1  3  1  0
  1  4  1  0
  3  7  2  0
  4  8  1  0
  4  6  1  0
  5  7  1  0
  7  6  1  0
  8  2  1  0
  9  1  2  0
M  END
$$$$

     RDKit          3D

 30 31  0  0  0  0  0  0  0  0999 V2000
   35.1440   25.9240   28.9290 C   0  0  0  0  0  0  0  0  0  0  0  0
   36.4620   35.6190   29.0820 C   0  0  0  0  0  0  0  0  0  0  0  0
   37.4090   37.7950   28.0120 C   0  0  0  0  0  0  0  0  0  0  0  0
   37.7350   31.9350   29.9610 C   0  0  0  0  0  0  0  0  0  0  0  0
   34.5400   25.6900   27.6260 O   0  0  0  0  0  0  0  0  0  0  0  0
   35.8390   33.5990   30.0950 N   0  0  0  0  0  0  0  0  0  0  0  0
   38.2370   37.7640   26.7740 C   0  0  0  0  0  0  0  0  0  0  0  0
   41.6860   39.2240   27.4720 O   0  0  0  0  0  0  0  0  0  0  0  0
   35.1190   28.2300   28.0450 C   0  0  0  0  0  0  0  0  0  0  0  0
   38.9890   39.5440   28.0300 C   0  0  0  0  0  0  0  0  0  0  0  0
   35.3420   27.3200   29.1800 C   0  0  0  0  0  0  0  0  0  0  0  0
   42.9850   41.2140   27.3480 O   0  0  0  0  0  0  0  0  0  0  0  0
   36.9340   30.7780   29.4740 C   0  0  0  0  0  0  0  0  0  0  0  0
   37.8890   34.7150   29.2420 S   0  0  0  0  0  0  0  0  0  0  0  0
   37.5290   39.2690   28.4080 C   0  0  0  0  0  0  0  0  0  0  0  0
   39.5520   38.2710   27.3530 C   0  0  0  0  0  0  0  0  0  0  0  0
   36.0580   30.1370   30.5030 C   0  0  0  0  0  0  0  0  0  0  0  0
   41.2500   37.4320   25.7020 C   0  0  0  0  0  0  0  0  0  0  0  0
   43.2250   39.7040   27.6430 P   0  0  0  0  0  0  0  0  0  0  0  0
   35.4240   34.9280   29.6960 C   0  0  0  0  0  0  0  0  0  0  0  0
   35.7390   24.8630   29.6680 C   0  0  0  0  0  0  0  0  0  0  0  0
   44.3880   41.1330   29.7740 C   0  0  0  0  0  0  0  0  0  0  0  0
   44.0480   38.7740   26.8000 O   0  0  0  0  0  0  0  0  0  0  0  0
   43.7420   39.8450   29.3150 C   0  0  0  0  0  0  0  0  0  0  0  0
   36.5080   36.9800   28.6530 N   0  0  0  0  0  0  0  0  0  0  0  0
   36.2080   27.6170   30.2420 C   0  0  0  0  0  0  0  0  0  0  0  0
   40.1970   37.1590   28.1450 O   0  0  0  0  0  0  0  0  0  0  0  0
   36.3650   28.8890   30.7400 C   0  0  0  0  0  0  0  0  0  0  0  0
   37.1070   33.3260   29.7000 C   0  0  0  0  0  0  0  0  0  0  0  0
   40.7930   38.6520   26.5360 C   0  0  0  0  0  0  0  0  0  0  0  0
  1 11  1  0
  1 21  1  0
  2 25  1  0
  2 14  1  0
  2 20  1  0
  3 15  1  0
  3 25  1  0
  5  1  1  0
  7 16  1  0
  7  3  1  0
  8 19  1  0
 10 15  1  0
 11  9  1  0
 11 26  1  0
 12 19  1  0
 13  4  1  0
 13 17  1  0
 14 29  1  0
 16 10  1  0
 16 27  1  0
 17 28  1  0
 19 23  2  0
 19 24  1  0
 20  6  1  0
 24 22  1  0
 26 28  2  3
 29  4  1  0
 29  6  1  0
 30 18  1  0
 30 16  1  0
 30  8  1  0
M  END
$$$$

     RDKit          3D

  7  7  0  0  0  0  0  0  0  0999 V2000
   41.4120   35.8010   26.4760 C   0  0  0  0  0  0  0  0  0  0  0  0
   43.2870   35.0560   27.7410 C   0  0  0  0  0  0  0  0  0  0  0  0
   43.3060   36.2850   28.3710 C   0  0  0  0  0  0  0  0  0  0  0  0
   40.8100   38.1030   26.4040 N   0  0  0  0  0  0  0  0  0  0  0  0
   42.4430   37.2950   27.9640 N   0  0  0  0  0  0  0  0  0  0  0  0
   41.6810   37.1230   26.9090 C   0  0  0  0  0  0  0  0  0  0  0  0
   42.0930   34.7270   27.0620 C   0  0  0  0  0  0  0  0  0  0  0  0
  1  6  2  0
  1  7  1  0
  2  3  1  0
  4  6  1  0
  5  3  2  0
  6  5  1  0
  7  2  2  0
M  END
$$$$

     RDKit          3D

 25 25  0  0  0  0  0  0  0  0999 V2000
   38.2690   34.5960   29.6620 C   0  0  0  0  0  0  0  0  0  0  0  0
   36.8330   36.4330   29.4940 O   0  0  0  0  0  0  0  0  0  0  0  0
   36.3800   34.0770   31.3400 C   0  0  0  0  0  0  0  0  0  0  0  0
   41.2750   37.2460   25.5060 C   0  0  0  0  0  0  0  0  0  0  0  0
   41.2480   37.6830   28.1030 O   0  0  0  0  0  0  0  0  0  0  0  0
   34.9430   34.4950   31.6510 C   0  0  0  0  0  0  0  0  0  0  0  0
   34.7930   28.0400   31.1560 O   0  0  0  0  0  0  0  0  0  0  0  0
   33.8490   28.4640   33.1260 C   0  0  0  0  0  0  0  0  0  0  0  0
   34.2610   33.4610   31.8790 C   0  0  0  0  0  0  0  0  0  0  0  0
   36.3960   29.9590   30.9350 O   0  0  0  0  0  0  0  0  0  0  0  0
   42.3640   37.8400   27.0480 P   0  0  0  0  0  0  0  0  0  0  0  0
   40.3540   36.5330   28.2600 C   0  0  0  0  0  0  0  0  0  0  0  0
   40.8690   36.0050   29.4640 O   0  0  0  0  0  0  0  0  0  0  0  0
   37.9820   35.9960   29.1900 C   0  0  0  0  0  0  0  0  0  0  0  0
   32.6330   35.5990   31.8020 C   0  0  0  0  0  0  0  0  0  0  0  0
   35.0800   32.4300   31.6000 C   0  0  0  0  0  0  0  0  0  0  0  0
   42.3810   39.3320   26.6680 O   0  0  0  0  0  0  0  0  0  0  0  0
   43.6670   36.9830   26.9840 C   0  0  0  0  0  0  0  0  0  0  0  0
   35.3140   30.0700   31.8390 C   0  0  0  0  0  0  0  0  0  0  0  0
   38.8660   36.8850   28.3290 C   0  0  0  0  0  0  0  0  0  0  0  0
   34.4210   31.1400   31.3700 C   0  0  0  0  0  0  0  0  0  0  0  0
   37.7350   34.5370   31.1180 C   0  0  0  0  0  0  0  0  0  0  0  0
   36.2720   32.7430   31.3950 N   0  0  0  0  0  0  0  0  0  0  0  0
   34.7220   28.9060   32.0300 C   0  0  0  0  0  0  0  0  0  0  0  0
   34.1420   35.7340   31.9400 C   0  0  0  0  0  0  0  0  0  0  0  0
  1 22  1  0
  3 23  2  0
  3  6  1  0
  4 11  1  0
  5 12  1  0
  6  9  1  0
  6 25  1  0
  7 24  2  0
 11  5  1  0
 12 20  1  0
 12 13  1  0
 14  2  2  0
 14  1  1  0
 15 25  1  0
 16  9  2  0
 17 11  2  0
 18 11  1  0
 19 10  1  0
 19 24  1  0
 20 14  1  0
 21 16  1  0
 21 19  1  0
 22  3  1  0
 23 16  1  0
 24  8  1  0
M  END
$$$$

     RDKit          3D

  9  9  0  0  0  0  0  0  0  0999 V2000
   38.7800   35.9720   28.5750 C   0  0  0  0  0  0  0  0  0  0  0  0
   41.0940   35.2580   28.1160 C   0  0  0  0  0  0  0  0  0  0  0  0
   40.5070   34.2070   28.4560 O   0  0  0  0  0  0  0  0  0  0  0  0
   39.3730   34.6850   28.7350 C   0  0  0  0  0  0  0  0  0  0  0  0
   37.8710   35.8190   29.5970 O   0  0  0  0  0  0  0  0  0  0  0  0
   43.3600   35.7760   27.6370 O   0  0  0  0  0  0  0  0  0  0  0  0
   42.3100   35.0560   28.3660 C   0  0  0  0  0  0  0  0  0  0  0  0
   40.5570   35.7260   26.9930 C   0  0  0  0  0  0  0  0  0  0  0  0
   39.4140   36.5500   27.3050 C   0  0  0  0  0  0  0  0  0  0  0  0
  1  4  1  0
  1  5  1  0
  2  7  1  0
  2  3  1  0
  3  4  1  0
  6  7  1  0
  8  9  1  0
  8  2  1  0
  9  1  1  0
M  END
$$$$

     RDKit          3D

  7  6  0  0  0  0  0  0  0  0999 V2000
   33.7700   34.5160   27.4760 O   0  0  0  0  0  0  0  0  0  0  0  0
   33.7000   35.7120   27.2500 C   0  0  0  0  0  0  0  0  0  0  0  0
   36.3680   34.6870   29.5260 C   0  0  0  0  0  0  0  0  0  0  0  0
   37.3280   33.1360   29.4720 S   0  0  0  0  0  0  0  0  0  0  0  0
   32.7780   36.3360   26.7340 O   0  0  0  0  0  0  0  0  0  0  0  0
   36.0480   35.4790   28.2380 C   0  0  0  0  0  0  0  0  0  0  0  0
   34.8990   36.3980   27.7770 C   0  0  0  0  0  0  0  0  0  0  0  0
  2  1  1  0
  2  7  1  0
  4  3  1  0
  5  2  2  0
  6  3  1  0
  7  6  1  0
M  END
$$$$

     RDKit          3D

 11 12  0  0  0  0  0  0  0  0999 V2000
   38.0250   34.6580   29.7550 C   0  0  0  0  0  0  0  0  0  0  0  0
   39.8670   33.3790   29.4180 C   0  0  0  0  0  0  0  0  0  0  0  0
   37.2160   38.1770   27.8970 O   0  0  0  0  0  0  0  0  0  0  0  0
   38.9850   35.3540   29.0650 C   0  0  0  0  0  0  0  0  0  0  0  0
   40.0800   34.5950   28.8160 N   0  0  0  0  0  0  0  0  0  0  0  0
   36.7790   35.3020   30.0660 C   0  0  0  0  0  0  0  0  0  0  0  0
   38.7980   36.6850   28.6450 C   0  0  0  0  0  0  0  0  0  0  0  0
   38.5170   33.0790   29.9430 S   0  0  0  0  0  0  0  0  0  0  0  0
   36.5580   36.5510   29.4870 C   0  0  0  0  0  0  0  0  0  0  0  0
   39.6680   37.4760   27.7900 O   0  0  0  0  0  0  0  0  0  0  0  0
   37.5120   37.1950   28.6390 C   0  0  0  0  0  0  0  0  0  0  0  0
  1  8  1  0
  1  6  1  0
  2  8  1  0
  3 11  2  0
  4  1  2  0
  5  4  1  0
  5  2  1  0
  7 10  1  0
  7  4  1  0
  9  6  2  0
 11  7  1  0
 11  9  1  0
M  END
$$$$

     RDKit          3D

 20 21  0  0  0  0  0  0  0  0999 V2000
   39.4490   37.9240   27.7630 C   0  0  0  0  0  0  0  0  0  0  0  0
   39.7320   35.5090   28.3330 C   0  0  0  0  0  0  0  0  0  0  0  0
   38.4600   32.3280   30.1850 C   0  0  0  0  0  0  0  0  0  0  0  0
   42.0660   37.5620   28.0260 S   0  0  0  0  0  0  0  0  0  0  0  0
   39.6800   31.9300   29.7400 C   0  0  0  0  0  0  0  0  0  0  0  0
   34.8830   31.7440   31.5680 C   0  0  0  0  0  0  0  0  0  0  0  0
   38.8800   36.6730   28.1580 C   0  0  0  0  0  0  0  0  0  0  0  0
   36.1450   32.2540   31.0280 C   0  0  0  0  0  0  0  0  0  0  0  0
   40.8880   39.9050   27.4750 C   0  0  0  0  0  0  0  0  0  0  0  0
   35.9350   34.4610   31.9810 C   0  0  0  0  0  0  0  0  0  0  0  0
   37.3220   31.2560   30.4050 S   0  0  0  0  0  0  0  0  0  0  0  0
   42.7880   35.4640   26.9320 O   0  0  0  0  0  0  0  0  0  0  0  0
   36.6480   33.5070   31.1450 C   0  0  0  0  0  0  0  0  0  0  0  0
   37.6610   35.9760   30.0040 C   0  0  0  0  0  0  0  0  0  0  0  0
   38.5320   34.8620   30.2090 N   0  0  0  0  0  0  0  0  0  0  0  0
   37.7360   36.6880   28.7600 N   0  0  0  0  0  0  0  0  0  0  0  0
   40.5030   35.4690   27.2650 C   0  0  0  0  0  0  0  0  0  0  0  0
   41.8570   36.0580   27.3310 C   0  0  0  0  0  0  0  0  0  0  0  0
   37.9180   33.6830   30.5120 C   0  0  0  0  0  0  0  0  0  0  0  0
   40.7540   38.3770   27.2350 C   0  0  0  0  0  0  0  0  0  0  0  0
  1  7  2  0
  3 11  1  0
  3 19  1  0
  5  3  2  0
  7  2  1  0
  7 16  1  0
  8 13  2  0
  8  6  1  0
 11  8  1  0
 12 18  2  0
 13 10  1  0
 14 15  1  0
 16 14  1  0
 17 18  1  0
 17  2  1  0
 18  4  1  0
 19 15  1  0
 19 13  1  0
 20  9  1  0
 20  1  1  0
 20  4  1  0
M  END
$$$$

     RDKit          3D

 21 22  0  0  0  0  0  0  0  0999 V2000
   35.7560   33.8810   31.0180 N   0  0  0  0  0  0  0  0  0  0  0  0
   41.4370   35.9460   30.2290 C   0  0  0  0  0  0  0  0  0  0  0  0
   33.5620   33.2090   29.0790 C   0  0  0  0  0  0  0  0  0  0  0  0
   44.8290   35.9790   29.5630 C   0  0  0  0  0  0  0  0  0  0  0  0
   32.3790   33.3050   28.3290 C   0  0  0  0  0  0  0  0  0  0  0  0
   40.5280   35.0280   31.0430 O   0  0  0  0  0  0  0  0  0  0  0  0
   39.4070   34.3690   30.6200 C   0  0  0  0  0  0  0  0  0  0  0  0
   33.5100   33.2000   30.5420 C   0  0  0  0  0  0  0  0  0  0  0  0
   39.7450   33.1360   30.0870 C   0  0  0  0  0  0  0  0  0  0  0  0
   37.5050   32.4380   30.6030 C   0  0  0  0  0  0  0  0  0  0  0  0
   37.0490   33.7010   30.8080 C   0  0  0  0  0  0  0  0  0  0  0  0
   29.8330   34.9560   28.4500 Cl  0  0  0  0  0  0  0  0  0  0  0  0
   38.0470   34.7640   30.7100 C   0  0  0  0  0  0  0  0  0  0  0  0
   31.1940   33.7340   28.9350 C   0  0  0  0  0  0  0  0  0  0  0  0
   45.6610   36.9630   28.7500 C   0  0  0  0  0  0  0  0  0  0  0  0
   34.7470   32.8270   31.3440 C   0  0  0  0  0  0  0  0  0  0  0  0
   38.6710   32.3580   29.8770 C   0  0  0  0  0  0  0  0  0  0  0  0
   31.4190   34.1950   30.2350 C   0  0  0  0  0  0  0  0  0  0  0  0
   32.3810   33.7080   31.1120 C   0  0  0  0  0  0  0  0  0  0  0  0
   42.7790   35.6460   30.7570 C   0  0  0  0  0  0  0  0  0  0  0  0
   43.8190   36.6950   30.4380 C   0  0  0  0  0  0  0  0  0  0  0  0
  1 16  1  0
  2 20  1  0
  2  6  1  0
  3  8  1  0
  4 21  1  0
  5 14  1  0
  5  3  1  0
  7 13  1  0
  7  6  1  0
  8 19  2  0
  8 16  1  0
  9  7  1  0
 10 11  1  0
 11  1  2  3
 13 11  1  0
 14 12  1  0
 14 18  1  0
 15  4  1  0
 17  9  1  0
 17 10  1  0
 18 19  1  0
 21 20  1  0
M  END
$$$$

     RDKit          3D

 28 33  0  0  0  0  0  0  0  0999 V2000
   38.3790   35.3780   28.3210 C   0  0  0  0  0  0  0  0  0  0  0  0
   36.4560   36.4920   28.6590 C   0  0  0  0  0  0  0  0  0  0  0  0
   36.5210   34.3370   29.7230 C   0  0  0  0  0  0  0  0  0  0  0  0
   39.3020   35.1290   27.3490 N   0  0  0  0  0  0  0  0  0  0  0  0
   31.9280   37.8940   27.5810 C   0  0  0  0  0  0  0  0  0  0  0  0
   35.7660   35.4840   29.3390 C   0  0  0  0  0  0  0  0  0  0  0  0
   42.1860   36.7570   28.3850 C   0  0  0  0  0  0  0  0  0  0  0  0
   33.7030   34.7750   30.1960 O   0  0  0  0  0  0  0  0  0  0  0  0
   34.4860   37.6590   28.1530 C   0  0  0  0  0  0  0  0  0  0  0  0
   34.3960   35.6610   29.4690 C   0  0  0  0  0  0  0  0  0  0  0  0
   33.9120   38.6180   27.4170 C   0  0  0  0  0  0  0  0  0  0  0  0
   31.2580   35.7810   28.6010 C   0  0  0  0  0  0  0  0  0  0  0  0
   35.8250   37.5770   28.2660 N   0  0  0  0  0  0  0  0  0  0  0  0
   32.6920   38.8500   27.1410 N   0  0  0  0  0  0  0  0  0  0  0  0
   42.4360   34.5450   27.4340 C   0  0  0  0  0  0  0  0  0  0  0  0
   43.3240   37.4550   27.9900 O   0  0  0  0  0  0  0  0  0  0  0  0
   37.7270   36.5110   28.2570 N   0  0  0  0  0  0  0  0  0  0  0  0
   33.3450   32.3470   31.3430 Cl  0  0  0  0  0  0  0  0  0  0  0  0
   40.4360   35.5720   27.5010 C   0  0  0  0  0  0  0  0  0  0  0  0
   34.3120   33.5670   30.6510 C   0  0  0  0  0  0  0  0  0  0  0  0
   33.7010   36.6880   28.7370 C   0  0  0  0  0  0  0  0  0  0  0  0
   42.5000   35.2370   28.4730 C   0  0  0  0  0  0  0  0  0  0  0  0
   32.3380   36.8160   28.3050 C   0  0  0  0  0  0  0  0  0  0  0  0
   41.1820   36.7480   27.1290 C   0  0  0  0  0  0  0  0  0  0  0  0
   35.7980   33.2520   30.4970 C   0  0  0  0  0  0  0  0  0  0  0  0
   44.0400   38.1280   28.8700 C   0  0  0  0  0  0  0  0  0  0  0  0
   37.9230   34.4210   29.2850 C   0  0  0  0  0  0  0  0  0  0  0  0
   41.1610   34.6650   28.2550 C   0  0  0  0  0  0  0  0  0  0  0  0
  1 27  1  0
  2  6  1  0
  3 25  1  0
  4  1  1  0
  5 23  1  0
  6 10  1  0
  6  3  2  0
  7 16  1  0
  7 22  1  0
  8 20  1  0
  9 13  1  0
  9 21  1  0
 10 21  1  0
 10  8  1  0
 11  9  2  0
 13  2  2  0
 14 11  1  0
 14  5  2  0
 16 26  1  0
 17  1  2  0
 17  2  1  0
 19  4  1  0
 19 28  1  0
 20 18  1  0
 22 15  1  0
 23 12  1  0
 23 21  2  0
 24 19  1  0
 24  7  1  0
 25 20  2  0
 27  3  1  0
 28 15  1  0
 28 22  1  0
M  END
$$$$

     RDKit          3D

 17 19  0  0  0  0  0  0  0  0999 V2000
   41.0270   37.1730   28.1600 C   0  0  0  0  0  0  0  0  0  0  0  0
   33.5900   36.0390   28.6690 C   0  0  0  0  0  0  0  0  0  0  0  0
   42.0500   36.4040   27.9610 N   0  0  0  0  0  0  0  0  0  0  0  0
   35.8620   37.0570   28.5200 C   0  0  0  0  0  0  0  0  0  0  0  0
   42.6750   38.5230   27.3640 C   0  0  0  0  0  0  0  0  0  0  0  0
   41.2210   38.4170   27.4630 N   0  0  0  0  0  0  0  0  0  0  0  0
   40.3370   35.2790   28.5950 N   0  0  0  0  0  0  0  0  0  0  0  0
   43.2680   37.1030   27.5860 C   0  0  0  0  0  0  0  0  0  0  0  0
   35.5000   34.3900   28.7810 C   0  0  0  0  0  0  0  0  0  0  0  0
   32.9590   36.1350   27.2320 C   0  0  0  0  0  0  0  0  0  0  0  0
   35.0380   35.7860   28.6490 C   0  0  0  0  0  0  0  0  0  0  0  0
   37.4040   36.8900   28.5090 C   0  0  0  0  0  0  0  0  0  0  0  0
   32.6930   34.9440   28.3070 C   0  0  0  0  0  0  0  0  0  0  0  0
   41.6950   34.9880   28.1550 C   0  0  0  0  0  0  0  0  0  0  0  0
   38.0310   35.5630   29.0540 C   0  0  0  0  0  0  0  0  0  0  0  0
   39.9960   36.5660   28.3790 N   0  0  0  0  0  0  0  0  0  0  0  0
   39.2280   34.4740   28.8980 C   0  0  0  0  0  0  0  0  0  0  0  0
  1 16  1  0
  3 14  1  0
  3  1  1  0
  4 11  2  3
  5  6  1  0
  5  8  1  0
  6  1  2  0
  7 17  1  0
  8  3  1  0
 10 13  1  0
 10  2  1  0
 11  2  1  0
 11  9  1  0
 12  4  1  0
 12 15  1  0
 13  2  1  0
 14  7  1  0
 16  7  1  0
 17 15  1  0
M  END
$$$$

     RDKit          3D

 10 11  0  0  0  0  0  0  0  0999 V2000
   40.4030   36.3060   27.4990 C   0  0  0  0  0  0  0  0  0  0  0  0
   41.6820   36.3890   28.3640 C   0  0  0  0  0  0  0  0  0  0  0  0
   41.7090   34.2610   26.8470 C   0  0  0  0  0  0  0  0  0  0  0  0
   39.7340   37.6320   27.4960 C   0  0  0  0  0  0  0  0  0  0  0  0
   43.1980   34.3260   28.9500 C   0  0  0  0  0  0  0  0  0  0  0  0
   42.3510   33.4960   27.9870 C   0  0  0  0  0  0  0  0  0  0  0  0
   38.8620   38.5740   25.4520 O   0  0  0  0  0  0  0  0  0  0  0  0
   42.7610   35.7550   29.2700 C   0  0  0  0  0  0  0  0  0  0  0  0
   39.6720   38.1080   26.0710 C   0  0  0  0  0  0  0  0  0  0  0  0
   41.4350   35.6610   27.0990 C   0  0  0  0  0  0  0  0  0  0  0  0
  1  4  1  0
  1  2  1  0
  2  8  1  0
  3  6  1  0
  5  8  2  0
  6  5  1  0
  7  9  2  0
  9  4  1  0
 10  3  1  0
 10  1  1  0
 10  2  1  0
M  END
$$$$

     RDKit          3D

 14 14  0  0  0  0  0  0  0  0999 V2000
   40.3070   35.5410   29.4130 C   0  0  0  0  0  0  0  0  0  0  0  0
   32.3650   39.0120   28.2490 O   0  0  0  0  0  0  0  0  0  0  0  0
   41.7300   35.1310   28.9200 C   0  0  0  0  0  0  0  0  0  0  0  0
   35.5890   37.0970   28.9900 C   0  0  0  0  0  0  0  0  0  0  0  0
   32.2610   36.4950   28.5130 O   0  0  0  0  0  0  0  0  0  0  0  0
   32.7070   37.6770   26.4010 O   0  0  0  0  0  0  0  0  0  0  0  0
   37.2240   37.2340   29.0040 C   0  0  0  0  0  0  0  0  0  0  0  0
   32.7180   37.5900   27.8260 S   0  0  0  0  0  0  0  0  0  0  0  0
   38.3260   36.8580   28.2010 C   0  0  0  0  0  0  0  0  0  0  0  0
   34.5370   37.8050   28.1170 C   0  0  0  0  0  0  0  0  0  0  0  0
   35.2080   36.5860   27.6680 N   0  0  0  0  0  0  0  0  0  0  0  0
   42.6950   35.3320   29.6310 O   0  0  0  0  0  0  0  0  0  0  0  0
   39.4800   36.0400   28.3640 C   0  0  0  0  0  0  0  0  0  0  0  0
   41.8300   34.3920   27.9320 O   0  0  0  0  0  0  0  0  0  0  0  0
  3  1  1  0
  3 12  1  0
  4  7  1  0
  6  8  1  0
  8  2  1  0
  8  5  1  0
  9 13  1  0
  9  7  1  0
 10  8  1  0
 10  4  1  0
 11 10  1  0
 11  4  1  0
 13  1  1  0
 14  3  2  0
M  END
$$$$

     RDKit          3D

  7  7  0  0  0  0  0  0  0  0999 V2000
   38.0350   35.5350   30.0050 C   0  0  0  0  0  0  0  0  0  0  0  0
   40.1080   36.1730   28.6020 C   0  0  0  0  0  0  0  0  0  0  0  0
   36.5600   35.5030   29.5690 C   0  0  0  0  0  0  0  0  0  0  0  0
   39.0900   35.0980   28.9310 C   0  0  0  0  0  0  0  0  0  0  0  0
   36.1870   36.2400   28.3350 C   0  0  0  0  0  0  0  0  0  0  0  0
   36.9900   37.1540   27.6390 O   0  0  0  0  0  0  0  0  0  0  0  0
   40.5440   34.9590   29.4070 C   0  0  0  0  0  0  0  0  0  0  0  0
  2  4  1  0
  2  7  1  0
  3  1  1  0
  4  7  1  0
  4  1  1  0
  5  3  2  3
  6  5  1  0
M  END
$$$$
