
     RDKit          3D

  8  7  0  0  0  0  0  0  0  0999 V2000
   37.6190   42.4950   26.9060 O   0  0  0  0  0  0  0  0  0  0  0  0
   37.4170   39.9240   27.0630 C   0  0  0  0  0  0  0  0  0  0  0  0
   37.9060   37.8430   27.9080 O   0  0  0  0  0  0  0  0  0  0  0  0
   39.1970   39.2380   28.7390 O   0  0  0  0  0  0  0  0  0  0  0  0
   38.4740   41.6200   27.2700 C   0  0  0  0  0  0  0  0  0  0  0  0
   39.7300   41.6440   27.9810 O   0  0  0  0  0  0  0  0  0  0  0  0
   38.3310   39.0220   27.8280 C   0  0  0  0  0  0  0  0  0  0  0  0
   38.2190   40.8050   26.3300 C   0  0  0  0  0  0  0  0  0  0  0  0
  1  5  2  0
  2  7  1  0
  5  6  1  0
  7  3  2  0
  7  4  1  0
  8  2  1  0
  8  5  1  0
M  END
$$$$

     RDKit          3D

 15 15  0  0  0  0  0  0  0  0999 V2000
   37.6320   41.3800   28.6190 C   0  0  0  0  0  0  0  0  0  0  0  0
   34.8760   41.5480   30.0190 O   0  0  0  0  0  0  0  0  0  0  0  0
   38.6890   39.3050   28.3540 C   0  0  0  0  0  0  0  0  0  0  0  0
   36.8330   40.4090   29.0750 C   0  0  0  0  0  0  0  0  0  0  0  0
   39.8910   41.4640   24.2940 C   0  0  0  0  0  0  0  0  0  0  0  0
   37.8590   42.5940   29.2770 O   0  0  0  0  0  0  0  0  0  0  0  0
   39.4820   41.4770   26.7270 C   0  0  0  0  0  0  0  0  0  0  0  0
   37.4870   39.2570   29.0530 N   0  0  0  0  0  0  0  0  0  0  0  0
   38.8050   40.7430   27.8820 C   0  0  0  0  0  0  0  0  0  0  0  0
   38.6140   42.5010   30.4820 C   0  0  0  0  0  0  0  0  0  0  0  0
   38.8180   38.1700   27.5040 O   0  0  0  0  0  0  0  0  0  0  0  0
   41.2410   41.0980   23.6070 C   0  0  0  0  0  0  0  0  0  0  0  0
   39.5350   40.5930   25.4540 C   0  0  0  0  0  0  0  0  0  0  0  0
   34.7560   39.4000   29.6940 O   0  0  0  0  0  0  0  0  0  0  0  0
   35.3960   40.4250   29.7780 C   0  0  0  0  0  0  0  0  0  0  0  0
  1  4  1  0
  1  6  1  0
  3 11  1  0
  3  8  1  0
  4 15  1  0
  5 13  1  0
  6 10  1  0
  8  4  1  0
  9  7  1  0
  9  3  1  0
  9  1  1  0
 12  5  1  0
 13  7  1  0
 14 15  2  0
 15  2  1  0
M  END
$$$$

     RDKit          3D

  7  6  0  0  0  0  0  0  0  0999 V2000
   34.3590   36.7390   31.3920 C   0  0  0  0  0  0  0  0  0  0  0  0
   36.0880   37.8740   30.0740 O   0  0  0  0  0  0  0  0  0  0  0  0
   37.7040   34.4740   31.4570 C   0  0  0  0  0  0  0  0  0  0  0  0
   35.7930   36.7900   30.8470 C   0  0  0  0  0  0  0  0  0  0  0  0
   38.0670   36.7410   30.9550 N   0  0  0  0  0  0  0  0  0  0  0  0
   34.0400   35.3950   31.1290 O   0  0  0  0  0  0  0  0  0  0  0  0
   36.9150   35.8480   31.2300 C   0  0  0  0  0  0  0  0  0  0  0  0
  4  2  1  0
  4  7  1  0
  4  1  1  0
  5  7  1  0
  6  1  1  0
  7  3  1  0
M  END
$$$$

     RDKit          3D

 10 10  0  0  0  0  0  0  0  0999 V2000
   39.8210   40.7940   28.1450 C   0  0  0  0  0  0  0  0  0  0  0  0
   38.9920   39.9330   29.0710 C   0  0  0  0  0  0  0  0  0  0  0  0
   39.3670   38.4770   28.9680 C   0  0  0  0  0  0  0  0  0  0  0  0
   38.3320   37.3780   29.4060 C   0  0  0  0  0  0  0  0  0  0  0  0
   36.8920   37.3400   29.9290 C   0  0  0  0  0  0  0  0  0  0  0  0
   37.8780   40.5390   29.8660 C   0  0  0  0  0  0  0  0  0  0  0  0
   37.3630   39.9580   30.9380 N   0  0  0  0  0  0  0  0  0  0  0  0
   37.4540   41.6440   29.8860 O   0  0  0  0  0  0  0  0  0  0  0  0
   36.0740   38.0420   31.0200 C   0  0  0  0  0  0  0  0  0  0  0  0
   36.1940   39.3170   31.2860 C   0  0  0  0  0  0  0  0  0  0  0  0
  2  1  1  0
  2  6  1  0
  3  2  1  0
  3  4  2  0
  4  5  1  0
  5  9  1  0
  6  8  2  0
  6  7  1  0
  7 10  1  0
  9 10  1  0
M  END
$$$$

     RDKit          3D

 11 11  0  0  0  0  0  0  0  0999 V2000
   37.1900   39.2600   26.9570 C   0  0  0  0  0  0  0  0  0  0  0  0
   39.3110   40.1490   27.9380 C   0  0  0  0  0  0  0  0  0  0  0  0
   38.6050   37.7870   28.4780 C   0  0  0  0  0  0  0  0  0  0  0  0
   40.4150   39.6140   28.6620 O   0  0  0  0  0  0  0  0  0  0  0  0
   38.2710   39.0790   27.8030 C   0  0  0  0  0  0  0  0  0  0  0  0
   38.7280   41.3290   28.5960 C   0  0  0  0  0  0  0  0  0  0  0  0
   37.4330   41.8080   26.7350 C   0  0  0  0  0  0  0  0  0  0  0  0
   36.7000   42.9520   26.3830 O   0  0  0  0  0  0  0  0  0  0  0  0
   39.2360   41.8230   29.6480 O   0  0  0  0  0  0  0  0  0  0  0  0
   37.4890   41.7530   28.1560 O   0  0  0  0  0  0  0  0  0  0  0  0
   36.9100   40.5530   26.1880 C   0  0  0  0  0  0  0  0  0  0  0  0
  1  5  2  0
  2  6  1  0
  2  4  1  0
  5  2  1  0
  5  3  1  0
  6  9  2  0
  7  8  1  0
  7 10  1  0
 10  6  1  0
 11  7  1  0
 11  1  1  0
M  END
$$$$

     RDKit          3D

 14 14  0  0  0  0  0  0  0  0999 V2000
   34.2410   37.4440   29.5930 O   0  0  0  0  0  0  0  0  0  0  0  0
   36.6220   37.5490   30.3950 C   0  0  0  0  0  0  0  0  0  0  0  0
   37.7280   34.0080   33.4060 N   0  0  0  0  0  0  0  0  0  0  0  0
   38.4330   39.0340   31.4790 O   0  0  0  0  0  0  0  0  0  0  0  0
   38.0030   35.5800   31.4530 C   0  0  0  0  0  0  0  0  0  0  0  0
   39.0560   39.3840   29.3510 C   0  0  0  0  0  0  0  0  0  0  0  0
   35.2480   37.9440   30.5180 O   0  0  0  0  0  0  0  0  0  0  0  0
   38.7130   40.3740   31.7710 C   0  0  0  0  0  0  0  0  0  0  0  0
   37.4730   35.3220   32.8220 C   0  0  0  0  0  0  0  0  0  0  0  0
   38.1660   40.6100   29.3860 C   0  0  0  0  0  0  0  0  0  0  0  0
   37.2440   38.8530   30.7260 C   0  0  0  0  0  0  0  0  0  0  0  0
   39.4370   39.6590   30.8550 C   0  0  0  0  0  0  0  0  0  0  0  0
   36.8250   36.0240   30.5730 C   0  0  0  0  0  0  0  0  0  0  0  0
   36.9830   40.1360   30.0810 O   0  0  0  0  0  0  0  0  0  0  0  0
  1  7  1  0
  2  7  1  0
  2 13  1  0
  2 11  1  0
  4  8  1  0
  5  9  1  0
  6 10  1  0
  9  3  1  0
 10 14  1  0
 12  6  1  0
 12  4  1  0
 12  8  1  0
 13  5  1  0
 14 11  1  0
M  END
$$$$

     RDKit          3D

  6  5  0  0  0  0  0  0  0  0999 V2000
   37.7820   39.7760   29.2890 C   0  0  0  0  0  0  0  0  0  0  0  0
   36.7310   39.1230   29.3140 O   0  0  0  0  0  0  0  0  0  0  0  0
   39.4020   39.2370   27.5210 C   0  0  0  0  0  0  0  0  0  0  0  0
   40.5920   40.0410   27.3380 N   0  0  0  0  0  0  0  0  0  0  0  0
   38.3380   40.2720   30.5690 C   0  0  0  0  0  0  0  0  0  0  0  0
   38.2250   39.9080   27.9890 C   0  0  0  0  0  0  0  0  0  0  0  0
  1  2  2  0
  1  5  1  0
  3  6  1  0
  4  3  1  0
  6  1  1  0
M  END
$$$$

     RDKit          3D

 10 11  0  0  0  0  0  0  0  0999 V2000
   37.0840   37.3950   29.1970 N   0  0  0  0  0  0  0  0  0  0  0  0
   39.2770   38.7980   28.3650 N   0  0  0  0  0  0  0  0  0  0  0  0
   37.9950   42.1520   30.2490 Br  0  0  0  0  0  0  0  0  0  0  0  0
   38.1040   38.3730   28.9410 C   0  0  0  0  0  0  0  0  0  0  0  0
   39.5180   40.0710   28.5690 C   0  0  0  0  0  0  0  0  0  0  0  0
   36.0310   37.9860   29.8490 C   0  0  0  0  0  0  0  0  0  0  0  0
   37.4790   39.6030   29.4460 C   0  0  0  0  0  0  0  0  0  0  0  0
   36.3590   39.2940   30.0860 N   0  0  0  0  0  0  0  0  0  0  0  0
   34.6920   37.4550   30.0860 C   0  0  0  0  0  0  0  0  0  0  0  0
   38.2780   40.6430   29.2480 C   0  0  0  0  0  0  0  0  0  0  0  0
  1  6  2  0
  2  5  2  0
  2  4  1  0
  4  1  2  0
  4  7  1  0
  5 10  1  0
  6  8  1  0
  6  9  1  0
  7  8  2  0
 10  7  1  0
 10  3  1  0
M  END
$$$$

     RDKit          3D

 17 17  0  0  0  0  0  0  0  0999 V2000
   35.8200   36.4150   31.7410 C   0  0  0  0  0  0  0  0  0  0  0  0
   35.4620   34.2080   32.5570 C   0  0  0  0  0  0  0  0  0  0  0  0
   37.6800   42.1350   30.3510 C   0  0  0  0  0  0  0  0  0  0  0  0
   37.7910   34.9250   31.9670 C   0  0  0  0  0  0  0  0  0  0  0  0
   37.7650   40.6620   30.8070 C   0  0  0  0  0  0  0  0  0  0  0  0
   36.8200   37.3280   31.3400 N   0  0  0  0  0  0  0  0  0  0  0  0
   34.5200   36.7630   32.1090 C   0  0  0  0  0  0  0  0  0  0  0  0
   34.0670   34.5400   32.6970 N   0  0  0  0  0  0  0  0  0  0  0  0
   40.2880   42.1030   30.0580 C   0  0  0  0  0  0  0  0  0  0  0  0
   36.3180   35.1740   32.1190 C   0  0  0  0  0  0  0  0  0  0  0  0
   36.8680   38.9030   29.4520 C   0  0  0  0  0  0  0  0  0  0  0  0
   33.6390   35.7430   32.4510 C   0  0  0  0  0  0  0  0  0  0  0  0
   37.0470   37.4620   29.8860 C   0  0  0  0  0  0  0  0  0  0  0  0
   38.0720   39.6530   29.7860 N   0  0  0  0  0  0  0  0  0  0  0  0
   38.9210   42.5060   29.4830 C   0  0  0  0  0  0  0  0  0  0  0  0
   39.2610   38.8370   30.1100 C   0  0  0  0  0  0  0  0  0  0  0  0
   36.4830   42.1680   29.2450 C   0  0  0  0  0  0  0  0  0  0  0  0
  1  7  2  0
  1 10  1  0
  2  8  1  0
  3 17  1  0
  3  5  1  0
  4 10  1  0
  6  1  1  0
  7 12  1  0
 10  2  2  0
 11 14  1  0
 11 13  1  0
 12  8  2  0
 13  6  1  0
 14 16  1  0
 14  5  1  0
 15  9  1  0
 15  3  1  0
M  END
$$$$

     RDKit          3D

 12 11  0  0  0  0  0  0  0  0999 V2000
   38.5850   39.3710   29.4250 C   0  0  0  0  0  0  0  0  0  0  0  0
   37.9840   41.1830   27.7350 O   0  0  0  0  0  0  0  0  0  0  0  0
   36.0050   36.7710   31.6220 C   0  0  0  0  0  0  0  0  0  0  0  0
   36.2970   39.0950   29.9190 O   0  0  0  0  0  0  0  0  0  0  0  0
   37.4270   38.4100   29.3850 C   0  0  0  0  0  0  0  0  0  0  0  0
   35.5380   35.4890   32.1430 C   0  0  0  0  0  0  0  0  0  0  0  0
   35.2120   38.2350   29.8270 C   0  0  0  0  0  0  0  0  0  0  0  0
   35.2860   37.0050   30.3030 C   0  0  0  0  0  0  0  0  0  0  0  0
   36.0050   35.0560   33.4760 N   0  0  0  0  0  0  0  0  0  0  0  0
   38.6330   40.1910   28.0910 C   0  0  0  0  0  0  0  0  0  0  0  0
   33.9290   38.6600   29.2190 C   0  0  0  0  0  0  0  0  0  0  0  0
   39.7570   40.0540   27.5570 O   0  0  0  0  0  0  0  0  0  0  0  0
  2 10  1  0
  3  6  1  0
  5  1  1  0
  5  4  1  0
  6  9  1  0
  7 11  1  0
  7  4  1  0
  7  8  1  0
  8  3  1  0
 10  1  1  0
 12 10  2  0
M  END
$$$$

     RDKit          3D

 14 15  0  0  0  0  0  0  0  0999 V2000
   40.9050   40.4840   28.4970 O   0  0  0  0  0  0  0  0  0  0  0  0
   37.9280   38.0440   30.7150 N   0  0  0  0  0  0  0  0  0  0  0  0
   39.9850   39.0200   29.9560 N   0  0  0  0  0  0  0  0  0  0  0  0
   34.4100   37.8700   29.5510 C   0  0  0  0  0  0  0  0  0  0  0  0
   36.2330   39.3750   28.9790 C   0  0  0  0  0  0  0  0  0  0  0  0
   38.5590   38.9470   29.8460 C   0  0  0  0  0  0  0  0  0  0  0  0
   41.0740   39.4910   29.2480 C   0  0  0  0  0  0  0  0  0  0  0  0
   35.0070   36.3700   31.3550 C   0  0  0  0  0  0  0  0  0  0  0  0
   42.1790   38.8350   29.2790 O   0  0  0  0  0  0  0  0  0  0  0  0
   34.0990   37.0220   30.3870 C   0  0  0  0  0  0  0  0  0  0  0  0
   36.1980   36.8910   31.5610 C   0  0  0  0  0  0  0  0  0  0  0  0
   36.6640   37.8720   30.6460 C   0  0  0  0  0  0  0  0  0  0  0  0
   35.7790   38.3050   29.7650 C   0  0  0  0  0  0  0  0  0  0  0  0
   37.6600   39.8190   29.1530 C   0  0  0  0  0  0  0  0  0  0  0  0
  1  7  2  0
  4 13  2  0
  4 10  1  0
  5 14  2  0
  5 13  1  0
  6  3  1  0
  6  2  2  0
  7  9  1  0
  7  3  1  0
  8 11  1  0
 10  8  2  0
 12  2  1  0
 12 11  2  0
 13 12  1  0
 14  6  1  0
M  END
$$$$

     RDKit          3D

 23 23  0  0  0  0  0  0  0  0999 V2000
   41.7520   41.9990   31.4910 C   0  0  0  0  0  0  0  0  0  0  0  0
   37.8050   35.1320   33.7680 O   0  0  0  0  0  0  0  0  0  0  0  0
   35.2250   31.7190   34.2920 N   0  0  0  0  0  0  0  0  0  0  0  0
   36.5450   33.2710   32.7960 C   0  0  0  0  0  0  0  0  0  0  0  0
   39.5320   43.4290   28.8490 C   0  0  0  0  0  0  0  0  0  0  0  0
   37.4370   39.7520   29.2750 N   0  0  0  0  0  0  0  0  0  0  0  0
   36.2880   35.5530   32.0920 C   0  0  0  0  0  0  0  0  0  0  0  0
   38.0650   30.5610   34.8070 C   0  0  0  0  0  0  0  0  0  0  0  0
   37.0660   34.5910   32.9430 C   0  0  0  0  0  0  0  0  0  0  0  0
   38.4220   32.6910   34.3980 O   0  0  0  0  0  0  0  0  0  0  0  0
   37.9540   40.9160   29.0310 C   0  0  0  0  0  0  0  0  0  0  0  0
   36.4870   32.0610   33.6580 C   0  0  0  0  0  0  0  0  0  0  0  0
   36.2020   37.8980   31.1660 N   0  0  0  0  0  0  0  0  0  0  0  0
   38.2430   37.3960   31.8960 N   0  0  0  0  0  0  0  0  0  0  0  0
   38.0200   39.2880   30.3930 C   0  0  0  0  0  0  0  0  0  0  0  0
   37.4710   31.9400   34.8320 C   0  0  0  0  0  0  0  0  0  0  0  0
   41.0080   42.5850   30.5530 O   0  0  0  0  0  0  0  0  0  0  0  0
   39.2020   43.2810   31.4270 O   0  0  0  0  0  0  0  0  0  0  0  0
   35.4320   36.8390   31.9770 C   0  0  0  0  0  0  0  0  0  0  0  0
   38.9380   41.2490   29.9060 C   0  0  0  0  0  0  0  0  0  0  0  0
   39.6390   42.6100   30.1580 C   0  0  0  0  0  0  0  0  0  0  0  0
   39.0880   40.1480   30.6990 C   0  0  0  0  0  0  0  0  0  0  0  0
   37.4310   38.0780   31.1310 C   0  0  0  0  0  0  0  0  0  0  0  0
  4  9  1  0
  4 12  1  0
  6 15  1  0
  7  9  1  0
  9  2  2  0
 10 16  1  0
 11  6  1  0
 11 20  1  0
 12  3  1  0
 12 16  1  0
 13 19  1  0
 15 22  1  0
 15 23  1  0
 16  8  1  0
 17  1  1  0
 19  7  1  0
 20 21  1  0
 20 22  1  0
 21  5  1  0
 21 17  1  0
 21 18  1  0
 23 13  1  0
 23 14  2  0
M  END
$$$$

     RDKit          3D

 21 23  0  0  0  0  0  0  0  0999 V2000
   37.8370   38.4030   31.0890 C   0  0  0  0  0  0  0  0  0  0  0  0
   35.9200   39.8230   30.2570 O   0  0  0  0  0  0  0  0  0  0  0  0
   38.2760   40.3090   28.1010 O   0  0  0  0  0  0  0  0  0  0  0  0
   38.1160   40.7620   29.5220 C   0  0  0  0  0  0  0  0  0  0  0  0
   35.9860   33.2130   32.9760 C   0  0  0  0  0  0  0  0  0  0  0  0
   37.1310   37.5540   32.2070 C   0  0  0  0  0  0  0  0  0  0  0  0
   36.8180   38.0610   33.2860 O   0  0  0  0  0  0  0  0  0  0  0  0
   37.2790   32.6930   32.4020 C   0  0  0  0  0  0  0  0  0  0  0  0
   36.9180   35.2300   32.3460 N   0  0  0  0  0  0  0  0  0  0  0  0
   36.7760   42.7930   28.5970 C   0  0  0  0  0  0  0  0  0  0  0  0
   37.3260   39.6400   30.2750 C   0  0  0  0  0  0  0  0  0  0  0  0
   37.7020   36.2680   32.2460 C   0  0  0  0  0  0  0  0  0  0  0  0
   38.1240   32.6950   33.5260 C   0  0  0  0  0  0  0  0  0  0  0  0
   37.2030   37.1430   31.1680 N   0  0  0  0  0  0  0  0  0  0  0  0
   38.0410   31.4190   34.3460 C   0  0  0  0  0  0  0  0  0  0  0  0
   36.5180   34.7790   31.0610 C   0  0  0  0  0  0  0  0  0  0  0  0
   38.7150   33.6720   34.1490 C   0  0  0  0  0  0  0  0  0  0  0  0
   36.4010   34.5730   33.4900 C   0  0  0  0  0  0  0  0  0  0  0  0
   37.9150   42.2740   29.4740 C   0  0  0  0  0  0  0  0  0  0  0  0
   38.2120   42.7840   28.2330 N   0  0  0  0  0  0  0  0  0  0  0  0
   38.7390   41.5650   27.4930 C   0  0  0  0  0  0  0  0  0  0  0  0
  1 14  1  0
  3  4  1  0
  4 11  1  0
  5 18  1  0
  6 12  1  0
  6  7  2  0
  8  5  1  0
  8 13  1  0
  9 18  1  0
 11  2  1  0
 11  1  1  0
 12  9  1  0
 13 17  2  0
 13 15  1  0
 14  6  1  0
 14 12  1  0
 16  9  1  0
 19 10  1  0
 19  4  1  0
 20 21  1  0
 20 10  1  0
 20 19  1  0
 21  3  1  0
M  END
$$$$

     RDKit          3D

 12 11  0  0  0  0  0  0  0  0999 V2000
   35.6390   35.2060   31.3270 C   0  0  0  0  0  0  0  0  0  0  0  0
   37.2130   36.0020   33.4020 O   0  0  0  0  0  0  0  0  0  0  0  0
   39.4750   39.9100   31.4430 C   0  0  0  0  0  0  0  0  0  0  0  0
   40.0200   40.5810   30.5200 N   0  0  0  0  0  0  0  0  0  0  0  0
   38.5420   38.7280   31.2080 C   0  0  0  0  0  0  0  0  0  0  0  0
   35.5110   38.5890   29.6340 C   0  0  0  0  0  0  0  0  0  0  0  0
   39.9010   40.2020   32.4340 O   0  0  0  0  0  0  0  0  0  0  0  0
   35.4280   37.8690   30.8830 C   0  0  0  0  0  0  0  0  0  0  0  0
   36.4550   37.3260   31.7540 N   0  0  0  0  0  0  0  0  0  0  0  0
   37.6220   38.1270   32.1910 C   0  0  0  0  0  0  0  0  0  0  0  0
   36.4570   36.1290   32.2430 N   0  0  0  0  0  0  0  0  0  0  0  0
   38.7480   38.0840   30.0540 N   0  0  0  0  0  0  0  0  0  0  0  0
  1 11  1  0
  3  7  2  0
  4  3  1  0
  5 12  1  0
  5  3  1  0
  5 10  1  0
  6  8  1  0
  8  9  1  0
  9 10  1  0
  9 11  1  0
 11  2  1  0
M  END
$$$$

     RDKit          3D

  9  9  0  0  0  0  0  0  0  0999 V2000
   31.7040   37.0030   33.6380 C   0  0  0  0  0  0  0  0  0  0  0  0
   33.9840   35.6280   32.1060 C   0  0  0  0  0  0  0  0  0  0  0  0
   35.4550   35.7590   32.5670 O   0  0  0  0  0  0  0  0  0  0  0  0
   33.7720   36.9130   32.2680 C   0  0  0  0  0  0  0  0  0  0  0  0
   31.0310   36.2360   32.5150 C   0  0  0  0  0  0  0  0  0  0  0  0
   31.5530   35.5430   30.9540 S   0  0  0  0  0  0  0  0  0  0  0  0
   35.0430   36.7270   32.4930 C   0  0  0  0  0  0  0  0  0  0  0  0
   33.0020   37.5500   33.3790 C   0  0  0  0  0  0  0  0  0  0  0  0
   31.8410   36.5420   29.7540 C   0  0  0  0  0  0  0  0  0  0  0  0
  2  4  1  0
  2  3  1  0
  4  7  1  0
  4  8  1  0
  5  1  2  3
  6  5  1  0
  7  3  1  0
  8  1  1  0
  9  6  2  0
M  END
$$$$

     RDKit          3D

 15 16  0  0  0  0  0  0  0  0999 V2000
   38.1070   39.6130   29.7770 C   0  0  0  0  0  0  0  0  0  0  0  0
   36.4810   36.0930   31.1250 C   0  0  0  0  0  0  0  0  0  0  0  0
   36.7330   39.4400   29.9490 C   0  0  0  0  0  0  0  0  0  0  0  0
   34.6530   35.0890   32.6810 N   0  0  0  0  0  0  0  0  0  0  0  0
   40.5750   39.1300   29.1350 Cl  0  0  0  0  0  0  0  0  0  0  0  0
   37.5670   35.3060   31.0300 O   0  0  0  0  0  0  0  0  0  0  0  0
   38.8900   38.6130   29.2870 C   0  0  0  0  0  0  0  0  0  0  0  0
   38.6620   37.2970   29.1020 C   0  0  0  0  0  0  0  0  0  0  0  0
   34.3220   36.9690   31.1380 C   0  0  0  0  0  0  0  0  0  0  0  0
   35.1690   35.9590   31.6600 C   0  0  0  0  0  0  0  0  0  0  0  0
   37.6380   37.3210   29.7290 C   0  0  0  0  0  0  0  0  0  0  0  0
   35.0190   38.0330   30.3930 C   0  0  0  0  0  0  0  0  0  0  0  0
   36.4940   37.9310   30.4210 C   0  0  0  0  0  0  0  0  0  0  0  0
   37.6530   34.1470   31.8440 C   0  0  0  0  0  0  0  0  0  0  0  0
   33.0970   37.0530   31.1600 O   0  0  0  0  0  0  0  0  0  0  0  0
  1  3  1  0
  2  6  1  0
  2 10  1  0
  3 13  1  0
  5  7  1  0
  6 14  1  0
  7  1  2  0
  8  7  1  0
  8 11  1  0
  9 15  2  0
  9 10  1  0
 10  4  1  0
 12 13  1  0
 12  9  1  0
 13 11  1  0
 13  2  1  0
M  END
$$$$

     RDKit          3D

 17 18  0  0  0  0  0  0  0  0999 V2000
   38.2420   41.2400   25.5980 C   0  0  0  0  0  0  0  0  0  0  0  0
   38.6050   36.1170   30.1950 C   0  0  0  0  0  0  0  0  0  0  0  0
   38.3050   41.6980   27.0630 C   0  0  0  0  0  0  0  0  0  0  0  0
   38.9730   43.3160   28.6390 C   0  0  0  0  0  0  0  0  0  0  0  0
   36.4800   38.0040   31.0200 C   0  0  0  0  0  0  0  0  0  0  0  0
   35.8460   38.8420   29.9350 C   0  0  0  0  0  0  0  0  0  0  0  0
   37.8730   40.8610   27.9880 C   0  0  0  0  0  0  0  0  0  0  0  0
   38.2790   37.3830   29.6360 N   0  0  0  0  0  0  0  0  0  0  0  0
   38.8100   41.3240   24.6000 N   0  0  0  0  0  0  0  0  0  0  0  0
   38.0030   39.8350   30.2910 C   0  0  0  0  0  0  0  0  0  0  0  0
   38.9930   42.8640   27.2450 C   0  0  0  0  0  0  0  0  0  0  0  0
   38.8410   42.2840   29.6830 C   0  0  0  0  0  0  0  0  0  0  0  0
   38.2790   41.0700   29.3100 C   0  0  0  0  0  0  0  0  0  0  0  0
   34.3020   37.0340   31.0860 O   0  0  0  0  0  0  0  0  0  0  0  0
   36.4810   40.0380   30.4800 C   0  0  0  0  0  0  0  0  0  0  0  0
   37.9730   38.2740   30.7460 C   0  0  0  0  0  0  0  0  0  0  0  0
   35.6890   36.9410   31.3870 C   0  0  0  0  0  0  0  0  0  0  0  0
  1  3  1  0
  3 11  1  0
  3  7  2  0
  4 12  1  0
  5 17  1  0
  6 15  1  0
  6  5  1  0
  7 13  1  0
  8  2  1  0
  9  1  2  0
 10 13  1  0
 10 15  1  0
 10 16  1  0
 11  4  1  0
 13 12  2  0
 14 17  1  0
 16  8  1  0
 16  5  1  0
M  END
$$$$

     RDKit          3D

 11 11  0  0  0  0  0  0  0  0999 V2000
   38.8650   40.7510   29.8910 C   0  0  0  0  0  0  0  0  0  0  0  0
   35.0800   36.1060   32.3310 O   0  0  0  0  0  0  0  0  0  0  0  0
   38.4580   39.9150   30.9970 O   0  0  0  0  0  0  0  0  0  0  0  0
   34.7550   36.6070   31.2290 C   0  0  0  0  0  0  0  0  0  0  0  0
   33.6380   36.4060   30.6440 O   0  0  0  0  0  0  0  0  0  0  0  0
   35.7870   37.4600   30.5730 C   0  0  0  0  0  0  0  0  0  0  0  0
   37.0450   37.9470   31.2930 C   0  0  0  0  0  0  0  0  0  0  0  0
   37.8760   38.8450   29.1650 N   0  0  0  0  0  0  0  0  0  0  0  0
   38.6010   39.9420   28.6780 C   0  0  0  0  0  0  0  0  0  0  0  0
   35.5960   37.5280   29.3540 O   0  0  0  0  0  0  0  0  0  0  0  0
   37.7760   38.9270   30.4200 C   0  0  0  0  0  0  0  0  0  0  0  0
  1  3  1  0
  4  2  1  0
  5  4  2  0
  6  4  1  0
  6  7  1  0
  8 11  2  0
  9  8  1  0
  9  1  1  0
 10  6  2  0
 11  3  1  0
 11  7  1  0
M  END
$$$$

     RDKit          3D

 10 10  0  0  0  0  0  0  0  0999 V2000
   39.3570   39.2500   29.4310 C   0  0  0  0  0  0  0  0  0  0  0  0
   37.3150   38.7290   28.6850 C   0  0  0  0  0  0  0  0  0  0  0  0
   36.7690   41.5330   31.2980 O   0  0  0  0  0  0  0  0  0  0  0  0
   36.7500   38.2840   27.5080 O   0  0  0  0  0  0  0  0  0  0  0  0
   38.4600   40.2790   29.7610 O   0  0  0  0  0  0  0  0  0  0  0  0
   37.7480   37.4660   30.6020 O   0  0  0  0  0  0  0  0  0  0  0  0
   35.3900   39.7100   29.2710 O   0  0  0  0  0  0  0  0  0  0  0  0
   38.3720   37.9200   29.3950 C   0  0  0  0  0  0  0  0  0  0  0  0
   36.8560   39.8190   29.6010 C   0  0  0  0  0  0  0  0  0  0  0  0
   36.5830   40.1710   31.0560 C   0  0  0  0  0  0  0  0  0  0  0  0
  1  5  1  0
  2  4  1  0
  2  8  1  0
  2  9  1  0
  8  1  1  0
  8  6  1  0
  9  7  1  0
  9  5  1  0
  9 10  1  0
 10  3  1  0
M  END
$$$$

     RDKit          3D

  3  2  0  0  0  0  0  0  0  0999 V2000
   39.9860   44.4140   19.3340 C   0  0  0  0  0  0  0  0  0  0  0  0
   39.5220   44.7900   17.9860 C   0  0  0  0  0  0  0  0  0  0  0  0
   40.2660   45.0180   16.7150 C   0  0  0  0  0  0  0  0  0  0  0  0
  2  1  1  0
  3  2  1  0
M  END
$$$$
