
     RDKit          3D

  6  5  0  0  0  0  0  0  0  0999 V2000
   44.3960   37.8860   24.9280 C   0  0  0  0  0  0  0  0  0  0  0  0
   44.1230   36.0020   26.3400 C   0  0  0  0  0  0  0  0  0  0  0  0
   44.2270   36.8670   25.6440 C   0  0  0  0  0  0  0  0  0  0  0  0
   43.6000   35.5580   27.5710 C   0  0  0  0  0  0  0  0  0  0  0  0
   44.0610   35.9740   28.7470 N   0  0  0  0  0  0  0  0  0  0  0  0
   42.5700   34.8790   27.7140 O   0  0  0  0  0  0  0  0  0  0  0  0
  1  3  3  0
  2  4  1  0
  3  2  1  0
  4  6  2  0
  4  5  1  0
M  END
$$$$

     RDKit          3D

  6  5  0  0  0  0  0  0  0  0999 V2000
   45.3930   35.9320   28.9770 N   0  0  0  0  0  0  0  0  0  0  0  0
   44.7440   36.7480   29.9820 C   0  0  0  0  0  0  0  0  0  0  0  0
   44.4380   36.0910   27.3000 O   0  0  0  0  0  0  0  0  0  0  0  0
   43.4130   36.4180   29.9870 O   0  0  0  0  0  0  0  0  0  0  0  0
   45.0360   35.4780   28.0610 C   0  0  0  0  0  0  0  0  0  0  0  0
   44.8050   33.9040   27.9500 N   0  0  0  0  0  0  0  0  0  0  0  0
  1  2  1  0
  2  4  1  0
  3  5  2  0
  5  1  1  0
  6  5  1  0
M  END
$$$$

     RDKit          3D

  6  5  0  0  0  0  0  0  0  0999 V2000
   36.0700   31.9830   30.7600 C   0  0  0  0  0  0  0  0  0  0  0  0
   33.5110   32.4860   33.0530 O   0  0  0  0  0  0  0  0  0  0  0  0
   34.9170   32.1360   33.0700 C   0  0  0  0  0  0  0  0  0  0  0  0
   36.5360   30.0100   32.2900 C   0  0  0  0  0  0  0  0  0  0  0  0
   34.3040   30.3880   31.3510 C   0  0  0  0  0  0  0  0  0  0  0  0
   35.5320   31.2090   31.9630 C   0  0  0  0  0  0  0  0  0  0  0  0
  1  6  1  0
  2  3  1  0
  5  6  1  0
  6  4  1  0
  6  3  1  0
M  END
$$$$

     RDKit          3D

  6  5  0  0  0  0  0  0  0  0999 V2000
   42.4470   36.8350   26.8680 C   0  0  0  0  0  0  0  0  0  0  0  0
   44.0400   34.2230   25.8220 F   0  0  0  0  0  0  0  0  0  0  0  0
   44.3280   35.2180   28.2510 C   0  0  0  0  0  0  0  0  0  0  0  0
   43.2270   38.0450   27.2940 C   0  0  0  0  0  0  0  0  0  0  0  0
   43.5110   35.7990   26.9470 C   0  0  0  0  0  0  0  0  0  0  0  0
   43.9910   35.5920   25.9010 N   0  0  0  0  0  0  0  0  0  0  0  0
  1  5  1  0
  1  4  1  0
  2  6  1  0
  5  3  1  0
  6  5  1  0
M  END
$$$$

     RDKit          3D

 14 13  0  0  0  0  0  0  0  0999 V2000
   44.1470   36.5420   30.6170 N   0  0  0  0  0  0  0  0  0  0  0  0
   45.6140   36.5110   28.6350 C   0  0  0  0  0  0  0  0  0  0  0  0
   35.7490   33.6700   31.6380 S   0  0  0  0  0  0  0  0  0  0  0  0
   35.1460   33.3390   30.1040 N   0  0  0  0  0  0  0  0  0  0  0  0
   39.2870   35.0730   29.9820 C   0  0  0  0  0  0  0  0  0  0  0  0
   44.2600   36.9550   29.1680 C   0  0  0  0  0  0  0  0  0  0  0  0
   36.8370   35.0600   31.0670 C   0  0  0  0  0  0  0  0  0  0  0  0
   34.4140   34.8030   32.1870 C   0  0  0  0  0  0  0  0  0  0  0  0
   40.0040   33.8780   29.2960 C   0  0  0  0  0  0  0  0  0  0  0  0
   41.3280   34.4640   28.7420 C   0  0  0  0  0  0  0  0  0  0  0  0
   37.9020   34.6200   30.0650 C   0  0  0  0  0  0  0  0  0  0  0  0
   41.6300   35.9550   28.8830 C   0  0  0  0  0  0  0  0  0  0  0  0
   39.8730   35.3450   31.3520 C   0  0  0  0  0  0  0  0  0  0  0  0
   42.9930   36.4700   28.3730 C   0  0  0  0  0  0  0  0  0  0  0  0
  3  8  1  0
  4  3  1  0
  5 11  1  0
  5 13  1  0
  6  2  1  0
  6  1  1  0
  7  3  1  0
  9  5  1  0
 10 12  2  3
 10  9  1  0
 11  7  1  0
 14 12  1  0
 14  6  1  0
M  END
$$$$

     RDKit          3D

 15 14  0  0  0  0  0  0  0  0999 V2000
   44.0990   38.5300   26.6160 O   0  0  0  0  0  0  0  0  0  0  0  0
   44.6080   37.3860   29.2990 C   0  0  0  0  0  0  0  0  0  0  0  0
   43.0960   34.8690   26.5640 O   0  0  0  0  0  0  0  0  0  0  0  0
   42.3730   38.8200   27.6680 N   0  0  0  0  0  0  0  0  0  0  0  0
   43.9510   38.3940   29.8230 O   0  0  0  0  0  0  0  0  0  0  0  0
   41.7480   39.8440   26.8740 C   0  0  0  0  0  0  0  0  0  0  0  0
   46.8920   35.3030   30.0970 O   0  0  0  0  0  0  0  0  0  0  0  0
   45.1470   35.4480   26.1600 O   0  0  0  0  0  0  0  0  0  0  0  0
   44.3820   35.1780   28.8830 O   0  0  0  0  0  0  0  0  0  0  0  0
   47.6950   37.0140   31.5030 C   0  0  0  0  0  0  0  0  0  0  0  0
   44.0970   35.5500   26.7760 C   0  0  0  0  0  0  0  0  0  0  0  0
   46.6860   36.5030   30.5420 C   0  0  0  0  0  0  0  0  0  0  0  0
   43.2450   37.7130   27.3550 C   0  0  0  0  0  0  0  0  0  0  0  0
   44.0840   36.3990   28.1200 C   0  0  0  0  0  0  0  0  0  0  0  0
   45.7880   37.2180   29.9040 N   0  0  0  0  0  0  0  0  0  0  0  0
  1 13  2  0
  2  5  2  0
  2 15  1  0
  3 11  1  0
  6  4  1  0
  7 12  2  0
  8 11  2  0
 11 14  1  0
 12 10  1  0
 13  4  1  0
 13 14  1  0
 14  9  1  0
 14  2  1  0
 15 12  1  0
M  END
$$$$

     RDKit          3D

 17 19  0  0  0  0  0  0  0  0999 V2000
   42.3130   36.3580   32.7380 C   0  0  0  0  0  0  0  0  0  0  0  0
   39.8830   35.1140   31.7130 C   0  0  0  0  0  0  0  0  0  0  0  0
   41.8970   34.4710   29.7850 C   0  0  0  0  0  0  0  0  0  0  0  0
   43.0930   35.2790   29.4190 C   0  0  0  0  0  0  0  0  0  0  0  0
   44.6190   36.4750   30.9810 C   0  0  0  0  0  0  0  0  0  0  0  0
   43.3920   35.8840   30.7250 C   0  0  0  0  0  0  0  0  0  0  0  0
   44.0270   34.8230   28.5050 N   0  0  0  0  0  0  0  0  0  0  0  0
   41.1220   35.3580   30.7600 C   0  0  0  0  0  0  0  0  0  0  0  0
   41.6830   33.4770   27.6200 O   0  0  0  0  0  0  0  0  0  0  0  0
   43.5370   37.1810   32.9970 C   0  0  0  0  0  0  0  0  0  0  0  0
   41.1260   33.9450   28.6440 C   0  0  0  0  0  0  0  0  0  0  0  0
   41.3120   36.7730   34.7690 N   0  0  0  0  0  0  0  0  0  0  0  0
   42.2400   35.8870   31.5290 C   0  0  0  0  0  0  0  0  0  0  0  0
   40.1660   35.4230   33.2500 C   0  0  0  0  0  0  0  0  0  0  0  0
   39.8580   33.8260   28.8390 O   0  0  0  0  0  0  0  0  0  0  0  0
   44.6470   37.3680   32.0550 C   0  0  0  0  0  0  0  0  0  0  0  0
   41.3650   36.2410   33.6730 C   0  0  0  0  0  0  0  0  0  0  0  0
  1 10  1  0
  1 17  1  0
  2 14  1  0
  3 11  1  0
  3  8  1  0
  4  7  1  0
  4  3  1  0
  4  6  1  0
  5 16  1  0
  6  5  2  0
  6 13  1  0
  8 13  1  0
  8  2  2  0
  9 11  2  0
 11 15  1  0
 13  1  2  0
 14 17  2  0
 16 10  1  0
 17 12  1  0
M  END
$$$$

     RDKit          3D

 22 24  0  0  0  0  0  0  0  0999 V2000
   36.7750   34.8190   33.0710 C   0  0  0  0  0  0  0  0  0  0  0  0
   35.0930   34.3660   34.7190 C   0  0  0  0  0  0  0  0  0  0  0  0
   41.3700   34.3540   27.3540 C   0  0  0  0  0  0  0  0  0  0  0  0
   41.4430   34.4610   31.6150 O   0  0  0  0  0  0  0  0  0  0  0  0
   40.9180   34.5640   30.5390 C   0  0  0  0  0  0  0  0  0  0  0  0
   43.6980   36.4820   24.2420 F   0  0  0  0  0  0  0  0  0  0  0  0
   35.2850   34.8110   33.3140 C   0  0  0  0  0  0  0  0  0  0  0  0
   41.5150   34.8890   25.9370 C   0  0  0  0  0  0  0  0  0  0  0  0
   38.3080   33.0220   33.4700 C   0  0  0  0  0  0  0  0  0  0  0  0
   37.2500   33.7600   34.0010 N   0  0  0  0  0  0  0  0  0  0  0  0
   44.8150   36.8020   25.4910 F   0  0  0  0  0  0  0  0  0  0  0  0
   36.0350   33.2060   34.5820 C   0  0  0  0  0  0  0  0  0  0  0  0
   42.4640   36.5300   27.5140 C   0  0  0  0  0  0  0  0  0  0  0  0
   42.0290   35.3770   28.1840 N   0  0  0  0  0  0  0  0  0  0  0  0
   41.6050   35.3460   29.5920 C   0  0  0  0  0  0  0  0  0  0  0  0
   43.4190   35.9260   28.2770 C   0  0  0  0  0  0  0  0  0  0  0  0
   39.0060   32.2180   33.9600 O   0  0  0  0  0  0  0  0  0  0  0  0
   39.0970   33.8150   31.5480 C   0  0  0  0  0  0  0  0  0  0  0  0
   39.8120   34.0770   30.4280 N   0  0  0  0  0  0  0  0  0  0  0  0
   38.9960   33.6760   32.4690 N   0  0  0  0  0  0  0  0  0  0  0  0
   43.4390   36.7330   25.3640 C   0  0  0  0  0  0  0  0  0  0  0  0
   42.8840   35.4740   25.9100 C   0  0  0  0  0  0  0  0  0  0  0  0
  1  7  1  0
  1 10  1  0
  3 14  1  0
  5  4  2  0
  6 21  1  0
  7  2  1  0
  8  3  1  0
  9 17  2  0
  9 10  1  0
 10 12  1  0
 12  2  1  0
 13 14  1  0
 13 16  1  0
 14 16  1  0
 14 15  1  0
 15  5  1  0
 18 20  1  0
 19  5  1  0
 19 18  1  0
 20  9  1  0
 21 11  1  0
 22 21  1  0
 22  8  1  0
 22 13  1  0
M  END
$$$$

     RDKit          3D

 18 20  0  0  0  0  0  0  0  0999 V2000
   38.6390   34.2760   34.6710 C   0  0  0  0  0  0  0  0  0  0  0  0
   40.7610   37.8740   27.8350 C   0  0  0  0  0  0  0  0  0  0  0  0
   41.8850   36.0480   29.1740 O   0  0  0  0  0  0  0  0  0  0  0  0
   40.5990   33.6180   29.6730 C   0  0  0  0  0  0  0  0  0  0  0  0
   41.5170   37.3510   26.5990 C   0  0  0  0  0  0  0  0  0  0  0  0
   40.0310   34.2550   32.0760 C   0  0  0  0  0  0  0  0  0  0  0  0
   39.5590   34.8870   34.3970 C   0  0  0  0  0  0  0  0  0  0  0  0
   37.9900   33.6970   33.3710 C   0  0  0  0  0  0  0  0  0  0  0  0
   40.9280   34.5520   30.8740 C   0  0  0  0  0  0  0  0  0  0  0  0
   37.8860   34.2660   35.8720 O   0  0  0  0  0  0  0  0  0  0  0  0
   41.5630   36.1180   33.0130 S   0  0  0  0  0  0  0  0  0  0  0  0
   41.6330   35.2400   28.2120 C   0  0  0  0  0  0  0  0  0  0  0  0
   41.3270   34.0110   28.4900 N   0  0  0  0  0  0  0  0  0  0  0  0
   38.7540   33.5200   32.1680 C   0  0  0  0  0  0  0  0  0  0  0  0
   41.4550   37.5130   29.0740 C   0  0  0  0  0  0  0  0  0  0  0  0
   41.5460   35.9290   31.3550 C   0  0  0  0  0  0  0  0  0  0  0  0
   41.8330   35.8550   26.8260 C   0  0  0  0  0  0  0  0  0  0  0  0
   40.4360   35.0100   33.2260 C   0  0  0  0  0  0  0  0  0  0  0  0
  1 10  1  0
  2 15  1  0
  5 17  1  0
  5  2  1  0
  6 14  2  0
  6 18  1  0
  7  1  1  0
  8  1  2  0
  9  4  1  0
  9 16  1  0
  9  6  1  0
 11 18  1  0
 12 13  1  0
 12  3  1  0
 13  4  1  0
 14  8  1  0
 15  3  1  0
 16 11  1  0
 17 12  1  0
 18  7  2  0
M  END
$$$$

     RDKit          3D

 20 21  0  0  0  0  0  0  0  0999 V2000
   42.5720   35.6500   34.2110 O   0  0  0  0  0  0  0  0  0  0  0  0
   42.0130   36.4950   32.0590 C   0  0  0  0  0  0  0  0  0  0  0  0
   44.5960   34.0500   32.9770 C   0  0  0  0  0  0  0  0  0  0  0  0
   43.8840   36.5690   30.4810 C   0  0  0  0  0  0  0  0  0  0  0  0
   36.8800   34.6610   35.5490 C   0  0  0  0  0  0  0  0  0  0  0  0
   42.8490   35.6650   32.9230 C   0  0  0  0  0  0  0  0  0  0  0  0
   44.4190   37.1030   29.3720 O   0  0  0  0  0  0  0  0  0  0  0  0
   44.6040   35.7010   31.2110 C   0  0  0  0  0  0  0  0  0  0  0  0
   40.8950   35.5430   31.6560 C   0  0  0  0  0  0  0  0  0  0  0  0
   42.6210   36.8090   30.7750 N   0  0  0  0  0  0  0  0  0  0  0  0
   45.9520   35.2250   30.7830 C   0  0  0  0  0  0  0  0  0  0  0  0
   37.7560   34.3940   34.3660 C   0  0  0  0  0  0  0  0  0  0  0  0
   45.5190   33.3310   32.2290 C   0  0  0  0  0  0  0  0  0  0  0  0
   37.1680   33.8880   33.3550 O   0  0  0  0  0  0  0  0  0  0  0  0
   43.9720   35.1200   32.3300 C   0  0  0  0  0  0  0  0  0  0  0  0
   39.0840   34.3960   34.5550 N   0  0  0  0  0  0  0  0  0  0  0  0
   45.9160   33.7810   30.9490 N   0  0  0  0  0  0  0  0  0  0  0  0
   39.8540   34.9100   33.6000 C   0  0  0  0  0  0  0  0  0  0  0  0
   40.0180   34.6030   32.2830 C   0  0  0  0  0  0  0  0  0  0  0  0
   46.0000   32.9040   29.8180 C   0  0  0  0  0  0  0  0  0  0  0  0
  2  9  1  0
  2  6  1  0
  4 10  1  0
  4  8  1  0
  6  1  1  0
  7  4  2  0
  8 11  1  0
  8 15  1  0
  9 19  1  0
 10  2  1  0
 11 17  1  0
 12 16  1  0
 12  5  1  0
 13  3  2  0
 14 12  2  0
 15  6  1  0
 15  3  1  0
 17 13  1  0
 18 16  1  0
 19 18  1  0
 20 17  1  0
M  END
$$$$

     RDKit          3D

 11 12  0  0  0  0  0  0  0  0999 V2000
   39.7750   35.3010   34.8570 O   0  0  0  0  0  0  0  0  0  0  0  0
   42.4330   35.2390   32.7440 C   0  0  0  0  0  0  0  0  0  0  0  0
   39.8650   35.3530   33.4110 C   0  0  0  0  0  0  0  0  0  0  0  0
   41.2300   35.5280   32.9750 C   0  0  0  0  0  0  0  0  0  0  0  0
   42.6840   36.8300   30.9010 C   0  0  0  0  0  0  0  0  0  0  0  0
   44.2960   36.9660   29.1070 N   0  0  0  0  0  0  0  0  0  0  0  0
   44.0940   36.4040   30.4670 C   0  0  0  0  0  0  0  0  0  0  0  0
   42.4690   38.1440   30.2560 N   0  0  0  0  0  0  0  0  0  0  0  0
   40.3090   36.5530   32.8750 O   0  0  0  0  0  0  0  0  0  0  0  0
   39.0260   34.5590   32.8360 O   0  0  0  0  0  0  0  0  0  0  0  0
   43.1150   35.5300   31.3260 C   0  0  0  0  0  0  0  0  0  0  0  0
  3  1  1  0
  4  2  1  0
  4  3  1  0
  5  8  1  0
  5 11  1  0
  7  6  1  0
  7  5  1  0
  7 11  1  0
  9  4  1  0
  9  3  1  0
 10  3  1  0
 11  2  1  0
M  END
$$$$

     RDKit          3D

 19 20  0  0  0  0  0  0  0  0999 V2000
   42.0650   35.5950   30.6180 C   0  0  0  0  0  0  0  0  0  0  0  0
   40.9360   33.4930   30.7470 O   0  0  0  0  0  0  0  0  0  0  0  0
   40.0010   32.7520   33.7300 C   0  0  0  0  0  0  0  0  0  0  0  0
   39.1360   35.1320   34.1860 C   0  0  0  0  0  0  0  0  0  0  0  0
   43.1650   36.5560   28.7410 C   0  0  0  0  0  0  0  0  0  0  0  0
   41.4880   33.8090   27.7110 C   0  0  0  0  0  0  0  0  0  0  0  0
   37.4370   33.1700   34.5840 S   0  0  0  0  0  0  0  0  0  0  0  0
   41.1320   34.6930   31.1230 C   0  0  0  0  0  0  0  0  0  0  0  0
   40.3670   35.2110   32.0030 N   0  0  0  0  0  0  0  0  0  0  0  0
   38.5240   31.9010   35.6040 C   0  0  0  0  0  0  0  0  0  0  0  0
   42.5810   35.4450   29.3260 C   0  0  0  0  0  0  0  0  0  0  0  0
   43.3370   37.6310   30.9670 C   0  0  0  0  0  0  0  0  0  0  0  0
   41.2410   35.8670   33.9020 O   0  0  0  0  0  0  0  0  0  0  0  0
   39.3490   31.4580   34.3200 C   0  0  0  0  0  0  0  0  0  0  0  0
   38.9930   33.7140   34.1440 C   0  0  0  0  0  0  0  0  0  0  0  0
   42.6990   34.0570   28.6180 C   0  0  0  0  0  0  0  0  0  0  0  0
   42.4780   36.6180   31.4470 N   0  0  0  0  0  0  0  0  0  0  0  0
   43.5320   37.6120   29.5180 C   0  0  0  0  0  0  0  0  0  0  0  0
   40.2480   35.3660   33.3720 C   0  0  0  0  0  0  0  0  0  0  0  0
  1  8  1  0
  1 17  1  0
  2  8  2  0
  3 15  1  0
  3 14  1  0
  5 11  1  0
  5 18  2  0
  6 16  1  0
  7 10  1  0
  8  9  1  0
  9 19  1  0
 11  1  2  0
 12 17  2  0
 14 10  1  0
 15  4  1  0
 15  7  1  0
 16 11  1  0
 18 12  1  0
 19 13  2  0
 19  4  1  0
M  END
$$$$

     RDKit          3D

 19 20  0  0  0  0  0  0  0  0999 V2000
   43.3340   35.9790   28.5410 C   0  0  0  0  0  0  0  0  0  0  0  0
   43.0690   35.6370   27.1290 C   0  0  0  0  0  0  0  0  0  0  0  0
   42.8620   33.8290   24.6290 O   0  0  0  0  0  0  0  0  0  0  0  0
   40.8450   34.2610   31.9440 N   0  0  0  0  0  0  0  0  0  0  0  0
   38.6770   33.6940   34.9360 C   0  0  0  0  0  0  0  0  0  0  0  0
   44.8460   33.8400   25.4340 C   0  0  0  0  0  0  0  0  0  0  0  0
   37.4550   33.1690   35.1730 O   0  0  0  0  0  0  0  0  0  0  0  0
   39.1640   34.7710   35.6460 C   0  0  0  0  0  0  0  0  0  0  0  0
   42.2110   35.0320   31.8890 C   0  0  0  0  0  0  0  0  0  0  0  0
   39.6410   35.7510   33.4450 C   0  0  0  0  0  0  0  0  0  0  0  0
   42.7120   35.3160   30.8180 C   0  0  0  0  0  0  0  0  0  0  0  0
   43.0270   34.8150   29.4930 C   0  0  0  0  0  0  0  0  0  0  0  0
   39.1450   35.6020   36.8270 O   0  0  0  0  0  0  0  0  0  0  0  0
   43.4610   33.7030   25.6710 C   0  0  0  0  0  0  0  0  0  0  0  0
   43.1160   34.0510   26.9400 N   0  0  0  0  0  0  0  0  0  0  0  0
   40.4630   33.2910   30.8980 C   0  0  0  0  0  0  0  0  0  0  0  0
   39.5160   33.2320   33.7660 C   0  0  0  0  0  0  0  0  0  0  0  0
   38.6510   35.5030   34.5060 C   0  0  0  0  0  0  0  0  0  0  0  0
   40.0910   34.3870   33.0180 C   0  0  0  0  0  0  0  0  0  0  0  0
  1 12  1  0
  2  1  1  0
  3 14  2  0
  5  7  1  0
  5  8  1  0
  6 14  1  0
  8 13  1  0
  9  4  1  0
 11  9  1  0
 12 11  1  0
 14 15  1  0
 15  2  1  0
 16  4  1  0
 17  5  1  0
 18 10  1  0
 18  5  1  0
 18  8  1  0
 19  4  1  0
 19 10  1  0
 19 17  1  0
M  END
$$$$

     RDKit          3D

 11 12  0  0  0  0  0  0  0  0999 V2000
   41.7760   36.1800   28.4960 C   0  0  0  0  0  0  0  0  0  0  0  0
   42.1370   32.9200   28.7570 O   0  0  0  0  0  0  0  0  0  0  0  0
   40.5510   35.7020   31.3890 C   0  0  0  0  0  0  0  0  0  0  0  0
   41.2910   33.9800   26.9390 O   0  0  0  0  0  0  0  0  0  0  0  0
   40.9770   34.9710   29.0460 C   0  0  0  0  0  0  0  0  0  0  0  0
   40.4290   33.0580   27.5620 O   0  0  0  0  0  0  0  0  0  0  0  0
   40.9510   35.9140   32.5090 O   0  0  0  0  0  0  0  0  0  0  0  0
   40.2380   36.1490   28.5660 C   0  0  0  0  0  0  0  0  0  0  0  0
   41.2240   33.8230   28.1310 S   0  0  0  0  0  0  0  0  0  0  0  0
   39.3010   35.8710   31.3180 O   0  0  0  0  0  0  0  0  0  0  0  0
   41.3800   34.9020   30.4150 C   0  0  0  0  0  0  0  0  0  0  0  0
  1  8  1  0
  1  5  1  0
  3  7  1  0
  4  6  1  0
  4  9  1  0
  5 11  1  0
  6  9  1  0
  8  5  1  0
  9  2  1  0
  9  5  1  0
 10  3  2  0
 11  3  1  0
M  END
$$$$

     RDKit          3D

 14 14  0  0  0  0  0  0  0  0999 V2000
   39.9750   34.6850   31.9380 C   0  0  0  0  0  0  0  0  0  0  0  0
   37.8540   33.5620   32.4810 C   0  0  0  0  0  0  0  0  0  0  0  0
   41.3630   36.0780   33.5620 C   0  0  0  0  0  0  0  0  0  0  0  0
   38.7570   33.9510   30.2300 N   0  0  0  0  0  0  0  0  0  0  0  0
   40.3470   35.1490   33.2380 C   0  0  0  0  0  0  0  0  0  0  0  0
   35.4620   32.7940   31.4600 C   0  0  0  0  0  0  0  0  0  0  0  0
   36.6390   33.3220   32.3120 C   0  0  0  0  0  0  0  0  0  0  0  0
   42.0250   36.9380   32.5180 C   0  0  0  0  0  0  0  0  0  0  0  0
   42.2850   36.7190   31.2720 C   0  0  0  0  0  0  0  0  0  0  0  0
   40.7910   34.8420   30.6840 C   0  0  0  0  0  0  0  0  0  0  0  0
   34.7830   31.5160   31.6120 C   0  0  0  0  0  0  0  0  0  0  0  0
   34.9330   33.0160   30.6760 O   0  0  0  0  0  0  0  0  0  0  0  0
   39.9060   34.2970   29.7540 N   0  0  0  0  0  0  0  0  0  0  0  0
   38.8210   34.0800   31.5350 C   0  0  0  0  0  0  0  0  0  0  0  0
  1  5  1  0
  4 14  1  0
  5  3  2  3
  6 11  1  0
  6  7  1  0
  7  2  1  0
  8  3  1  0
  9  8  2  0
 10  1  2  0
 12  6  2  0
 13  4  2  0
 13 10  1  0
 14  1  1  0
 14  2  1  0
M  END
$$$$

     RDKit          3D

  7  8  0  0  0  0  0  0  0  0999 V2000
   43.7960   34.9620   24.3470 N   0  0  0  0  0  0  0  0  0  0  0  0
   43.2850   36.7170   27.9750 S   0  0  0  0  0  0  0  0  0  0  0  0
   42.9070   34.6940   26.5330 C   0  0  0  0  0  0  0  0  0  0  0  0
   44.4590   36.8910   25.4840 C   0  0  0  0  0  0  0  0  0  0  0  0
   43.3490   35.8110   25.5150 C   0  0  0  0  0  0  0  0  0  0  0  0
   43.8300   34.9980   27.6430 C   0  0  0  0  0  0  0  0  0  0  0  0
   43.2540   37.0920   26.3870 C   0  0  0  0  0  0  0  0  0  0  0  0
  3  6  1  0
  4  5  1  0
  5  1  1  0
  5  7  1  0
  5  3  1  0
  6  2  1  0
  7  4  1  0
  7  2  1  0
M  END
$$$$

     RDKit          3D

 21 21  0  0  0  0  0  0  0  0999 V2000
   42.2240   33.6240   28.5730 N   0  0  0  0  0  0  0  0  0  0  0  0
   39.4200   32.7450   31.9690 C   0  0  0  0  0  0  0  0  0  0  0  0
   41.8250   36.6590   30.5740 C   0  0  0  0  0  0  0  0  0  0  0  0
   38.6290   29.5650   35.1040 F   0  0  0  0  0  0  0  0  0  0  0  0
   40.3360   35.0290   30.1510 C   0  0  0  0  0  0  0  0  0  0  0  0
   41.3920   35.8470   29.3540 C   0  0  0  0  0  0  0  0  0  0  0  0
   37.7850   29.9400   33.0530 C   0  0  0  0  0  0  0  0  0  0  0  0
   41.0680   34.9190   26.8720 C   0  0  0  0  0  0  0  0  0  0  0  0
   40.8720   34.4090   31.3650 N   0  0  0  0  0  0  0  0  0  0  0  0
   41.9010   34.9450   28.1190 C   0  0  0  0  0  0  0  0  0  0  0  0
   39.9450   33.9850   32.2450 C   0  0  0  0  0  0  0  0  0  0  0  0
   37.4470   29.8610   34.5100 C   0  0  0  0  0  0  0  0  0  0  0  0
   43.2920   35.4490   27.7270 C   0  0  0  0  0  0  0  0  0  0  0  0
   41.6370   37.8780   30.9480 N   0  0  0  0  0  0  0  0  0  0  0  0
   35.6140   33.0120   34.6240 N   0  0  0  0  0  0  0  0  0  0  0  0
   39.5590   34.7340   33.1560 O   0  0  0  0  0  0  0  0  0  0  0  0
   36.6710   32.2310   34.4630 C   0  0  0  0  0  0  0  0  0  0  0  0
   38.6230   32.0630   32.9860 C   0  0  0  0  0  0  0  0  0  0  0  0
   36.6740   30.9930   34.9730 N   0  0  0  0  0  0  0  0  0  0  0  0
   37.6560   32.6760   33.6320 N   0  0  0  0  0  0  0  0  0  0  0  0
   38.9400   30.7840   33.0540 N   0  0  0  0  0  0  0  0  0  0  0  0
  2 11  1  0
  2 18  1  0
  3 14  2  0
  5  9  1  0
  6  5  1  0
  6  3  1  0
  7 21  1  0
  7 12  1  0
  8 10  1  0
  9 11  1  0
 10  1  1  0
 10  6  1  0
 11 16  2  0
 12 19  1  0
 12  4  1  0
 13 10  1  0
 17 15  1  0
 17 19  2  0
 18 21  1  0
 18 20  2  0
 20 17  1  0
M  END
$$$$

     RDKit          3D

 20 21  0  0  0  0  0  0  0  0999 V2000
   42.5970   34.6780   32.0150 C   0  0  0  0  0  0  0  0  0  0  0  0
   43.7760   34.1720   32.3680 C   0  0  0  0  0  0  0  0  0  0  0  0
   41.3600   35.0040   27.3580 O   0  0  0  0  0  0  0  0  0  0  0  0
   39.8830   35.3860   32.7850 O   0  0  0  0  0  0  0  0  0  0  0  0
   41.7290   34.2450   26.4110 O   0  0  0  0  0  0  0  0  0  0  0  0
   38.5160   35.5930   32.8740 C   0  0  0  0  0  0  0  0  0  0  0  0
   44.7880   33.9270   33.5020 C   0  0  0  0  0  0  0  0  0  0  0  0
   41.8440   34.0330   30.0130 C   0  0  0  0  0  0  0  0  0  0  0  0
   42.9840   35.2770   34.1750 C   0  0  0  0  0  0  0  0  0  0  0  0
   41.5660   34.6200   31.0260 C   0  0  0  0  0  0  0  0  0  0  0  0
   44.0090   34.2970   34.7380 C   0  0  0  0  0  0  0  0  0  0  0  0
   44.8490   35.2700   35.5120 C   0  0  0  0  0  0  0  0  0  0  0  0
   41.1200   34.4670   28.7250 C   0  0  0  0  0  0  0  0  0  0  0  0
   39.8830   35.2530   29.1620 C   0  0  0  0  0  0  0  0  0  0  0  0
   42.2430   36.1390   34.5030 O   0  0  0  0  0  0  0  0  0  0  0  0
   41.9740   33.2920   28.6700 O   0  0  0  0  0  0  0  0  0  0  0  0
   42.6370   34.7480   32.9860 C   0  0  0  0  0  0  0  0  0  0  0  0
   37.3250   35.7750   32.1540 O   0  0  0  0  0  0  0  0  0  0  0  0
   40.3920   35.3450   31.4940 C   0  0  0  0  0  0  0  0  0  0  0  0
   39.5060   35.2650   30.5090 O   0  0  0  0  0  0  0  0  0  0  0  0
  1  2  1  0
  1 17  2  0
  4  6  1  0
  5  3  1  0
  7 11  1  0
  8 16  1  0
  8 10  1  0
  9 15  1  0
  9 11  1  0
 10 19  1  0
 10  1  1  0
 11 12  1  0
 13  3  1  0
 13 14  1  0
 13  8  1  0
 14 20  1  0
 16 13  1  0
 17  9  2  0
 18  6  1  0
 19  4  1  0
 20 19  1  0
M  END
$$$$

     RDKit          3D

 25 25  0  0  0  0  0  0  0  0999 V2000
   40.1560   32.9080   33.1180 C   0  0  0  0  0  0  0  0  0  0  0  0
   33.5760   32.8530   35.1810 C   0  0  0  0  0  0  0  0  0  0  0  0
   42.9530   34.9070   30.0760 N   0  0  0  0  0  0  0  0  0  0  0  0
   47.4300   38.3060   26.9730 O   0  0  0  0  0  0  0  0  0  0  0  0
   46.6400   37.3620   29.2660 C   0  0  0  0  0  0  0  0  0  0  0  0
   35.8180   33.2730   34.5560 N   0  0  0  0  0  0  0  0  0  0  0  0
   46.0630   35.0010   27.9970 N   0  0  0  0  0  0  0  0  0  0  0  0
   42.0390   34.8060   30.6650 C   0  0  0  0  0  0  0  0  0  0  0  0
   32.2510   32.7360   34.6920 C   0  0  0  0  0  0  0  0  0  0  0  0
   34.8220   32.5760   34.9300 C   0  0  0  0  0  0  0  0  0  0  0  0
   46.3710   38.3380   28.1360 C   0  0  0  0  0  0  0  0  0  0  0  0
   45.5960   36.4360   29.8700 O   0  0  0  0  0  0  0  0  0  0  0  0
   45.0980   37.9130   27.5070 O   0  0  0  0  0  0  0  0  0  0  0  0
   38.1180   33.2930   34.7110 O   0  0  0  0  0  0  0  0  0  0  0  0
   46.7260   38.8970   29.1580 C   0  0  0  0  0  0  0  0  0  0  0  0
   44.0970   34.4660   29.4290 C   0  0  0  0  0  0  0  0  0  0  0  0
   37.9970   33.2380   33.6770 C   0  0  0  0  0  0  0  0  0  0  0  0
   40.8340   32.9520   31.8120 C   0  0  0  0  0  0  0  0  0  0  0  0
   31.7360   33.8400   34.4110 O   0  0  0  0  0  0  0  0  0  0  0  0
   31.5650   31.7550   35.1740 O   0  0  0  0  0  0  0  0  0  0  0  0
   38.9500   33.6890   32.9280 N   0  0  0  0  0  0  0  0  0  0  0  0
   33.3960   32.9100   36.8770 C   0  0  0  0  0  0  0  0  0  0  0  0
   40.8580   34.4630   31.4470 C   0  0  0  0  0  0  0  0  0  0  0  0
   44.9610   35.6190   28.9030 C   0  0  0  0  0  0  0  0  0  0  0  0
   36.5330   33.1940   33.2660 C   0  0  0  0  0  0  0  0  0  0  0  0
  2 22  1  0
  3  8  1  0
  4 11  1  0
  5 12  1  0
  6 10  1  0
  8 23  1  0
  9 20  1  0
  9  2  1  0
 10  2  1  0
 11 15  1  0
 11  5  1  0
 13 11  1  0
 15  5  1  0
 16  3  1  0
 17 14  2  0
 18  1  1  0
 19  9  2  0
 21  1  1  0
 21 17  1  0
 23 18  1  0
 24  7  1  0
 24 16  1  0
 24 12  1  0
 25 17  1  0
 25  6  1  0
M  END
$$$$

     RDKit          3D

 14 13  0  0  0  0  0  0  0  0999 V2000
   38.5930   35.3190   31.1570 O   0  0  0  0  0  0  0  0  0  0  0  0
   44.1340   37.0220   32.4780 C   0  0  0  0  0  0  0  0  0  0  0  0
   42.1460   35.8540   33.7320 O   0  0  0  0  0  0  0  0  0  0  0  0
   40.6290   34.2620   31.3220 N   0  0  0  0  0  0  0  0  0  0  0  0
   42.3560   35.0520   27.9210 C   0  0  0  0  0  0  0  0  0  0  0  0
   42.7170   35.3060   30.7210 C   0  0  0  0  0  0  0  0  0  0  0  0
   41.6310   37.0810   31.5280 O   0  0  0  0  0  0  0  0  0  0  0  0
   39.2660   34.4190   31.5740 C   0  0  0  0  0  0  0  0  0  0  0  0
   38.5030   32.6530   33.5450 C   0  0  0  0  0  0  0  0  0  0  0  0
   41.3150   34.8280   30.2680 C   0  0  0  0  0  0  0  0  0  0  0  0
   41.4840   34.2190   28.8330 C   0  0  0  0  0  0  0  0  0  0  0  0
   43.2470   34.0840   27.1670 C   0  0  0  0  0  0  0  0  0  0  0  0
   42.5910   36.1990   32.1870 P   0  0  0  0  0  0  0  0  0  0  0  0
   38.9230   33.5810   32.8070 C   0  0  0  0  0  0  0  0  0  0  0  0
  1  8  2  0
  4  8  1  0
  5 11  1  0
  6 13  1  0
  7 13  2  0
  8 14  1  0
 10 11  1  0
 10  6  1  0
 10  4  1  0
 12  5  1  0
 13  2  1  0
 13  3  1  0
 14  9  3  0
M  END
$$$$
