
     RDKit          3D

 10 11  0  0  0  0  0  0  0  0999 V2000
   37.4200   35.8450   21.0530 C   0  0  0  0  0  0  0  0  0  0  0  0
   36.0460   36.2020   20.6030 C   0  0  0  0  0  0  0  0  0  0  0  0
   38.1350   37.0020   20.3590 C   0  0  0  0  0  0  0  0  0  0  0  0
   35.4630   33.5180   21.9400 O   0  0  0  0  0  0  0  0  0  0  0  0
   37.2480   35.2700   22.4630 C   0  0  0  0  0  0  0  0  0  0  0  0
   35.5480   37.1580   20.0590 O   0  0  0  0  0  0  0  0  0  0  0  0
   33.1730   35.4010   22.3270 O   0  0  0  0  0  0  0  0  0  0  0  0
   35.0420   36.2430   21.1760 C   0  0  0  0  0  0  0  0  0  0  0  0
   35.8960   34.5770   22.7040 C   0  0  0  0  0  0  0  0  0  0  0  0
   34.6450   35.5490   22.4770 C   0  0  0  0  0  0  0  0  0  0  0  0
  1  3  1  0
  1  5  1  0
  2  6  1  0
  2  1  1  0
  2  8  1  0
  5  9  1  0
  8  6  1  0
  8 10  1  0
  9  4  1  0
 10  7  1  0
 10  9  1  0
M  END
$$$$

     RDKit          3D

  7  6  0  0  0  0  0  0  0  0999 V2000
   38.2200   34.4050   19.3630 C   0  0  0  0  0  0  0  0  0  0  0  0
   38.8290   35.6800   21.5760 C   0  0  0  0  0  0  0  0  0  0  0  0
   38.2650   36.5880   19.4390 O   0  0  0  0  0  0  0  0  0  0  0  0
   36.5680   36.2230   22.5440 C   0  0  0  0  0  0  0  0  0  0  0  0
   37.7670   35.4400   22.5150 N   0  0  0  0  0  0  0  0  0  0  0  0
   39.6210   34.4350   18.8430 C   0  0  0  0  0  0  0  0  0  0  0  0
   38.1940   35.6570   20.1540 C   0  0  0  0  0  0  0  0  0  0  0  0
  1  7  1  0
  2  5  1  0
  3  7  2  0
  5  4  1  0
  6  1  1  0
  7  2  1  0
M  END
$$$$

     RDKit          3D

 16 17  0  0  0  0  0  0  0  0999 V2000
   37.8640   34.6540   27.3540 C   0  0  0  0  0  0  0  0  0  0  0  0
   37.8800   37.7010   24.0520 C   0  0  0  0  0  0  0  0  0  0  0  0
   37.7320   35.7270   27.8850 O   0  0  0  0  0  0  0  0  0  0  0  0
   36.6390   34.8490   25.0960 O   0  0  0  0  0  0  0  0  0  0  0  0
   38.5210   33.7680   21.5210 O   0  0  0  0  0  0  0  0  0  0  0  0
   36.3820   33.8430   20.8250 O   0  0  0  0  0  0  0  0  0  0  0  0
   37.0410   36.9060   23.1590 C   0  0  0  0  0  0  0  0  0  0  0  0
   36.8120   33.6540   27.0670 C   0  0  0  0  0  0  0  0  0  0  0  0
   37.9170   36.8060   25.2720 C   0  0  0  0  0  0  0  0  0  0  0  0
   37.4320   35.6040   23.1470 C   0  0  0  0  0  0  0  0  0  0  0  0
   38.3750   34.6960   28.7240 C   0  0  0  0  0  0  0  0  0  0  0  0
   37.7390   35.4080   24.7070 C   0  0  0  0  0  0  0  0  0  0  0  0
   37.8170   35.9860   20.4890 O   0  0  0  0  0  0  0  0  0  0  0  0
   37.5210   34.8020   21.3560 P   0  0  0  0  0  0  0  0  0  0  0  0
   35.7840   33.8200   28.0950 O   0  0  0  0  0  0  0  0  0  0  0  0
   36.1520   33.7880   25.7230 C   0  0  0  0  0  0  0  0  0  0  0  0
  1  8  1  0
  1  3  1  0
  1 11  1  0
  2  9  1  0
  3 11  1  0
  4 16  1  0
  6 14  1  0
  7  2  1  0
  8 15  1  0
 10 14  1  0
 10  7  1  0
 10 12  1  0
 12  4  1  0
 12  9  1  0
 13 14  2  0
 14  5  1  0
 16  8  1  0
M  END
$$$$

     RDKit          3D

  7  6  0  0  0  0  0  0  0  0999 V2000
   40.2810   36.3430   20.9680 O   0  0  0  0  0  0  0  0  0  0  0  0
   35.9120   36.3140   20.8660 O   0  0  0  0  0  0  0  0  0  0  0  0
   39.2060   35.3570   21.2920 C   0  0  0  0  0  0  0  0  0  0  0  0
   37.9740   36.0700   20.9170 C   0  0  0  0  0  0  0  0  0  0  0  0
   37.7220   36.4450   19.7410 O   0  0  0  0  0  0  0  0  0  0  0  0
   36.5300   34.2410   21.5420 O   0  0  0  0  0  0  0  0  0  0  0  0
   36.7480   35.4720   21.5100 C   0  0  0  0  0  0  0  0  0  0  0  0
  1  3  1  0
  2  7  1  0
  4  3  1  0
  4  7  1  0
  5  4  2  0
  7  6  1  0
M  END
$$$$

     RDKit          3D

 11 11  0  0  0  0  0  0  0  0999 V2000
   35.7070   36.2840   20.8450 C   0  0  0  0  0  0  0  0  0  0  0  0
   38.5350   37.0550   21.4380 O   0  0  0  0  0  0  0  0  0  0  0  0
   37.5630   34.8790   20.5280 C   0  0  0  0  0  0  0  0  0  0  0  0
   35.9120   32.6840   19.9760 C   0  0  0  0  0  0  0  0  0  0  0  0
   33.3980   36.8500   20.0560 O   0  0  0  0  0  0  0  0  0  0  0  0
   34.1810   36.4140   20.8050 C   0  0  0  0  0  0  0  0  0  0  0  0
   36.1860   34.7770   21.0320 C   0  0  0  0  0  0  0  0  0  0  0  0
   37.5670   36.0470   21.6830 C   0  0  0  0  0  0  0  0  0  0  0  0
   37.8820   34.9860   19.0810 C   0  0  0  0  0  0  0  0  0  0  0  0
   36.3180   36.8480   21.9160 N   0  0  0  0  0  0  0  0  0  0  0  0
   35.4520   33.9690   20.5100 O   0  0  0  0  0  0  0  0  0  0  0  0
  1  6  1  0
  1  7  1  0
  1 10  1  0
  3  9  1  0
  3  7  1  0
  3  8  1  0
  4 11  1  0
  5  6  2  0
  7 11  1  0
  8  2  1  0
  8 10  1  0
M  END
$$$$

     RDKit          3D

 19 18  0  0  0  0  0  0  0  0999 V2000
   35.4510   35.6660   20.7450 O   0  0  0  0  0  0  0  0  0  0  0  0
   41.9220   40.4980   28.6040 O   0  0  0  0  0  0  0  0  0  0  0  0
   36.4470   35.0050   20.2410 C   0  0  0  0  0  0  0  0  0  0  0  0
   39.9210   39.0890   28.4970 N   0  0  0  0  0  0  0  0  0  0  0  0
   39.8530   37.1920   26.8040 C   0  0  0  0  0  0  0  0  0  0  0  0
   38.8270   35.7460   23.3270 C   0  0  0  0  0  0  0  0  0  0  0  0
   37.7770   35.1060   20.8970 C   0  0  0  0  0  0  0  0  0  0  0  0
   41.0460   38.1350   26.2780 O   0  0  0  0  0  0  0  0  0  0  0  0
   41.8490   38.4570   30.0790 O   0  0  0  0  0  0  0  0  0  0  0  0
   40.3680   36.0970   27.5000 O   0  0  0  0  0  0  0  0  0  0  0  0
   38.1600   34.6270   24.0720 C   0  0  0  0  0  0  0  0  0  0  0  0
   39.2360   36.7720   25.3830 C   0  0  0  0  0  0  0  0  0  0  0  0
   40.7770   40.6440   30.8880 C   0  0  0  0  0  0  0  0  0  0  0  0
   38.0300   36.1510   22.0000 C   0  0  0  0  0  0  0  0  0  0  0  0
   36.3440   34.3560   19.1840 O   0  0  0  0  0  0  0  0  0  0  0  0
   37.3460   37.2490   22.1050 O   0  0  0  0  0  0  0  0  0  0  0  0
   39.4620   36.7550   24.1930 C   0  0  0  0  0  0  0  0  0  0  0  0
   41.1570   39.6360   29.6370 S   0  0  0  0  0  0  0  0  0  0  0  0
   39.1060   38.0830   27.7570 C   0  0  0  0  0  0  0  0  0  0  0  0
  2 18  2  0
  3  1  1  0
  3  7  1  0
  4 18  1  0
  5 10  1  0
  5 19  1  0
  6 11  1  0
  6 17  1  0
  7 14  1  0
  8  5  1  0
 12  5  1  0
 14 16  1  0
 14  6  1  0
 15  3  2  0
 17 12  1  0
 18  9  2  0
 18 13  1  0
 19  4  1  0
M  END
$$$$

     RDKit          3D

 22 22  0  0  0  0  0  0  0  0999 V2000
   37.4090   38.4240   24.0440 O   0  0  0  0  0  0  0  0  0  0  0  0
   36.6350   35.9470   26.2980 C   0  0  0  0  0  0  0  0  0  0  0  0
   37.1510   33.6730   29.8860 C   0  0  0  0  0  0  0  0  0  0  0  0
   38.6220   34.5970   22.0390 C   0  0  0  0  0  0  0  0  0  0  0  0
   36.2030   32.4990   30.0530 C   0  0  0  0  0  0  0  0  0  0  0  0
   38.5650   36.3690   23.8330 C   0  0  0  0  0  0  0  0  0  0  0  0
   35.2790   29.9400   32.0730 C   0  0  0  0  0  0  0  0  0  0  0  0
   38.1530   34.6430   23.7330 S   0  0  0  0  0  0  0  0  0  0  0  0
   39.1970   36.7490   22.6500 C   0  0  0  0  0  0  0  0  0  0  0  0
   39.1690   35.7910   21.6500 N   0  0  0  0  0  0  0  0  0  0  0  0
   36.4680   34.8210   29.1740 C   0  0  0  0  0  0  0  0  0  0  0  0
   37.3500   37.1320   25.8670 N   0  0  0  0  0  0  0  0  0  0  0  0
   37.9270   33.7170   21.0370 C   0  0  0  0  0  0  0  0  0  0  0  0
   36.7110   29.8180   32.6390 C   0  0  0  0  0  0  0  0  0  0  0  0
   37.6220   35.5700   28.5220 C   0  0  0  0  0  0  0  0  0  0  0  0
   37.6620   35.1230   27.0630 C   0  0  0  0  0  0  0  0  0  0  0  0
   37.6280   29.4670   31.4200 O   0  0  0  0  0  0  0  0  0  0  0  0
   35.8920   32.4260   31.5170 C   0  0  0  0  0  0  0  0  0  0  0  0
   37.8340   37.3510   24.7100 C   0  0  0  0  0  0  0  0  0  0  0  0
   39.9630   38.3210   22.5960 S   0  0  0  0  0  0  0  0  0  0  0  0
   34.9890   31.2420   31.6780 C   0  0  0  0  0  0  0  0  0  0  0  0
   36.5310   33.4890   21.0840 N   0  0  0  0  0  0  0  0  0  0  0  0
  1 19  2  0
  2 16  1  0
  3  5  1  0
  4 13  1  0
  4  8  1  0
  5 18  1  0
  6 19  1  0
  7 14  1  0
  8  6  1  0
  9  6  1  0
 10  4  1  0
 10  9  1  0
 11  3  1  0
 12  2  1  0
 13 22  1  0
 15 11  1  0
 16 15  1  0
 17 14  1  0
 18 21  1  0
 19 12  1  0
 20  9  2  0
 21  7  1  0
M  END
$$$$

     RDKit          3D

  9  8  0  0  0  0  0  0  0  0999 V2000
   39.4330   37.6500   26.1170 C   0  0  0  0  0  0  0  0  0  0  0  0
   39.2170   37.8560   28.4630 N   0  0  0  0  0  0  0  0  0  0  0  0
   38.4680   35.1460   26.1520 C   0  0  0  0  0  0  0  0  0  0  0  0
   38.7080   34.9650   28.4550 C   0  0  0  0  0  0  0  0  0  0  0  0
   38.7270   38.5180   25.3970 O   0  0  0  0  0  0  0  0  0  0  0  0
   40.1380   36.9670   25.1760 O   0  0  0  0  0  0  0  0  0  0  0  0
   38.2320   35.9070   27.4080 N   0  0  0  0  0  0  0  0  0  0  0  0
   39.0230   37.0130   27.3900 C   0  0  0  0  0  0  0  0  0  0  0  0
   36.9340   36.3160   27.9880 C   0  0  0  0  0  0  0  0  0  0  0  0
  1  8  1  0
  3  7  1  0
  5  1  1  0
  6  1  2  0
  7  9  1  0
  7  4  1  0
  8  7  1  0
  8  2  2  0
M  END
$$$$

     RDKit          3D

 11 11  0  0  0  0  0  0  0  0999 V2000
   34.8020   33.4960   20.3200 C   0  0  0  0  0  0  0  0  0  0  0  0
   34.5190   37.4560   21.7590 S   0  0  0  0  0  0  0  0  0  0  0  0
   33.1530   38.1330   21.5430 O   0  0  0  0  0  0  0  0  0  0  0  0
   34.3480   36.0590   21.1970 C   0  0  0  0  0  0  0  0  0  0  0  0
   33.6320   34.1170   19.7850 C   0  0  0  0  0  0  0  0  0  0  0  0
   32.3030   36.2970   18.9640 S   0  0  0  0  0  0  0  0  0  0  0  0
   33.4400   35.4630   20.1100 C   0  0  0  0  0  0  0  0  0  0  0  0
   35.7500   38.2590   21.4640 C   0  0  0  0  0  0  0  0  0  0  0  0
   35.0560   35.2130   21.6700 C   0  0  0  0  0  0  0  0  0  0  0  0
   34.9920   33.8030   21.5290 C   0  0  0  0  0  0  0  0  0  0  0  0
   34.7060   37.2650   23.2410 O   0  0  0  0  0  0  0  0  0  0  0  0
  1 10  1  0
  2 11  2  0
  3  2  2  0
  4  9  2  0
  4  2  1  0
  5  7  2  0
  5  1  1  0
  6  7  1  0
  7  4  1  0
  8  2  1  0
 10  9  1  0
M  END
$$$$

     RDKit          3D

 24 25  0  0  0  0  0  0  0  0999 V2000
   35.2500   33.8000   33.0210 C   0  0  0  0  0  0  0  0  0  0  0  0
   34.9300   32.8750   32.0870 C   0  0  0  0  0  0  0  0  0  0  0  0
   34.1820   31.6510   32.5350 C   0  0  0  0  0  0  0  0  0  0  0  0
   35.4000   32.7630   30.7490 C   0  0  0  0  0  0  0  0  0  0  0  0
   39.1890   37.3120   24.3930 C   0  0  0  0  0  0  0  0  0  0  0  0
   38.2680   36.0350   30.1190 O   0  0  0  0  0  0  0  0  0  0  0  0
   37.9460   37.5790   22.3190 N   0  0  0  0  0  0  0  0  0  0  0  0
   38.9270   40.3210   21.8750 O   0  0  0  0  0  0  0  0  0  0  0  0
   40.7230   39.1300   21.5870 O   0  0  0  0  0  0  0  0  0  0  0  0
   39.3860   38.0390   25.5390 O   0  0  0  0  0  0  0  0  0  0  0  0
   38.9220   34.9430   28.1720 N   0  0  0  0  0  0  0  0  0  0  0  0
   37.0300   33.9270   29.4940 C   0  0  0  0  0  0  0  0  0  0  0  0
   38.0810   35.0360   29.3150 C   0  0  0  0  0  0  0  0  0  0  0  0
   38.9400   35.3430   25.9500 C   0  0  0  0  0  0  0  0  0  0  0  0
   39.9470   37.1830   28.1400 C   0  0  0  0  0  0  0  0  0  0  0  0
   35.6290   35.0870   32.3920 C   0  0  0  0  0  0  0  0  0  0  0  0
   38.6020   36.0560   24.7330 N   0  0  0  0  0  0  0  0  0  0  0  0
   39.1930   36.0990   27.2890 C   0  0  0  0  0  0  0  0  0  0  0  0
   37.1910   32.7480   28.7600 N   0  0  0  0  0  0  0  0  0  0  0  0
   39.0750   38.2010   23.0980 C   0  0  0  0  0  0  0  0  0  0  0  0
   35.9410   34.0690   30.2650 N   0  0  0  0  0  0  0  0  0  0  0  0
   39.5390   39.3280   22.1500 C   0  0  0  0  0  0  0  0  0  0  0  0
   40.2750   37.3390   23.3940 C   0  0  0  0  0  0  0  0  0  0  0  0
   35.2490   35.1850   30.9350 C   0  0  0  0  0  0  0  0  0  0  0  0
  2  3  1  0
  2  1  1  0
  4  2  1  0
  5 17  1  0
  5 10  1  0
  8 22  1  0
  9 22  2  0
 11 13  1  0
 12 19  1  0
 12 21  1  0
 13 12  1  0
 13  6  2  0
 14 18  1  0
 16  1  1  0
 17 14  1  0
 18 15  1  0
 18 11  1  0
 20  7  1  0
 20 23  1  0
 20  5  1  0
 21  4  1  0
 21 24  1  0
 22 20  1  0
 23  5  1  0
 24 16  1  0
M  END
$$$$

     RDKit          3D

 16 16  0  0  0  0  0  0  0  0999 V2000
   42.2290   37.1950   23.0710 N   0  0  0  0  0  0  0  0  0  0  0  0
   35.2220   33.6840   29.1260 C   0  0  0  0  0  0  0  0  0  0  0  0
   38.4310   35.9340   26.3450 N   0  0  0  0  0  0  0  0  0  0  0  0
   35.8470   35.7150   27.7520 C   0  0  0  0  0  0  0  0  0  0  0  0
   38.5460   36.5440   25.2510 C   0  0  0  0  0  0  0  0  0  0  0  0
   37.0350   35.4790   26.7180 C   0  0  0  0  0  0  0  0  0  0  0  0
   35.5170   31.7740   26.9420 C   0  0  0  0  0  0  0  0  0  0  0  0
   35.3350   30.5360   26.9060 C   0  0  0  0  0  0  0  0  0  0  0  0
   39.7560   37.2850   24.7610 C   0  0  0  0  0  0  0  0  0  0  0  0
   37.3770   36.4110   24.6220 N   0  0  0  0  0  0  0  0  0  0  0  0
   39.8680   38.1210   23.5540 C   0  0  0  0  0  0  0  0  0  0  0  0
   36.4530   33.2670   28.5590 O   0  0  0  0  0  0  0  0  0  0  0  0
   40.8920   37.8650   22.6880 C   0  0  0  0  0  0  0  0  0  0  0  0
   36.4020   35.8390   25.4010 C   0  0  0  0  0  0  0  0  0  0  0  0
   36.5090   32.7610   27.2600 C   0  0  0  0  0  0  0  0  0  0  0  0
   35.1320   35.2080   29.0170 C   0  0  0  0  0  0  0  0  0  0  0  0
  3  6  1  0
  4 16  1  0
  5  3  2  0
  6  4  1  0
  7 15  1  0
  8  7  2  0
  9  5  1  0
 10  5  1  0
 10 14  2  0
 11  9  1  0
 12  2  1  0
 13  1  1  0
 13 11  1  0
 14  6  1  0
 15 12  1  0
 16  2  1  0
M  END
$$$$

     RDKit          3D

 17 18  0  0  0  0  0  0  0  0999 V2000
   34.2620   38.0140   21.4350 O   0  0  0  0  0  0  0  0  0  0  0  0
   33.5140   35.7830   21.0850 C   0  0  0  0  0  0  0  0  0  0  0  0
   35.5750   36.4020   22.2240 N   0  0  0  0  0  0  0  0  0  0  0  0
   36.2560   36.0090   24.3860 C   0  0  0  0  0  0  0  0  0  0  0  0
   36.4020   34.1810   27.5150 C   0  0  0  0  0  0  0  0  0  0  0  0
   38.3470   35.7660   21.3890 O   0  0  0  0  0  0  0  0  0  0  0  0
   36.5580   33.2930   28.3470 O   0  0  0  0  0  0  0  0  0  0  0  0
   34.7030   36.7660   21.1440 C   0  0  0  0  0  0  0  0  0  0  0  0
   35.2900   37.0320   19.7730 C   0  0  0  0  0  0  0  0  0  0  0  0
   36.4620   35.4000   22.9780 C   0  0  0  0  0  0  0  0  0  0  0  0
   37.1720   33.2150   23.9060 O   0  0  0  0  0  0  0  0  0  0  0  0
   37.2790   34.8110   21.6740 C   0  0  0  0  0  0  0  0  0  0  0  0
   37.6110   34.1100   24.9840 C   0  0  0  0  0  0  0  0  0  0  0  0
   36.1800   35.4460   27.8920 O   0  0  0  0  0  0  0  0  0  0  0  0
   36.5900   34.0880   26.0190 C   0  0  0  0  0  0  0  0  0  0  0  0
   36.8740   33.9340   22.8260 C   0  0  0  0  0  0  0  0  0  0  0  0
   36.8020   35.2440   25.3880 O   0  0  0  0  0  0  0  0  0  0  0  0
  2  8  1  0
  4 17  1  0
  5 14  2  0
  5  7  1  0
  8  1  1  0
  8  3  1  0
  9  8  1  0
 10  3  1  0
 10  4  1  0
 11 13  1  0
 12  6  1  0
 12 16  1  0
 12 10  1  0
 13 15  1  0
 15  5  1  0
 16 10  1  0
 16 11  1  0
 17 15  1  0
M  END
$$$$

     RDKit          3D

 12 11  0  0  0  0  0  0  0  0999 V2000
   33.6790   35.2460   19.3980 O   0  0  0  0  0  0  0  0  0  0  0  0
   36.4620   36.9090   20.3160 O   0  0  0  0  0  0  0  0  0  0  0  0
   35.7720   34.0870   21.5320 C   0  0  0  0  0  0  0  0  0  0  0  0
   34.5990   33.4810   17.8700 O   0  0  0  0  0  0  0  0  0  0  0  0
   36.5930   36.3310   21.4500 C   0  0  0  0  0  0  0  0  0  0  0  0
   34.9360   35.6970   23.3160 C   0  0  0  0  0  0  0  0  0  0  0  0
   37.7090   36.2690   21.9810 O   0  0  0  0  0  0  0  0  0  0  0  0
   35.8550   36.1210   24.1800 O   0  0  0  0  0  0  0  0  0  0  0  0
   33.4090   33.2330   20.3120 O   0  0  0  0  0  0  0  0  0  0  0  0
   35.3410   35.4800   21.9850 C   0  0  0  0  0  0  0  0  0  0  0  0
   35.6590   34.1480   20.0690 O   0  0  0  0  0  0  0  0  0  0  0  0
   34.3760   33.8370   19.3250 P   0  0  0  0  0  0  0  0  0  0  0  0
  2  5  2  0
  4 12  2  0
  5  7  1  0
  5 10  1  0
  6  8  1  0
 10  3  1  0
 10  6  1  0
 11  3  1  0
 12  1  1  0
 12 11  1  0
 12  9  1  0
M  END
$$$$

     RDKit          3D

  9  8  0  0  0  0  0  0  0  0999 V2000
   34.7280   34.7110   21.9430 N   0  0  0  0  0  0  0  0  0  0  0  0
   35.2250   33.8430   22.8240 N   0  0  0  0  0  0  0  0  0  0  0  0
   36.2620   36.6260   20.9460 C   0  0  0  0  0  0  0  0  0  0  0  0
   35.0800   37.5580   21.1500 O   0  0  0  0  0  0  0  0  0  0  0  0
   37.2930   37.0900   21.0440 O   0  0  0  0  0  0  0  0  0  0  0  0
   34.7510   35.2460   19.7420 O   0  0  0  0  0  0  0  0  0  0  0  0
   35.6600   35.1970   21.0540 C   0  0  0  0  0  0  0  0  0  0  0  0
   36.4630   34.0830   23.1590 C   0  0  0  0  0  0  0  0  0  0  0  0
   37.1920   35.1040   22.6480 O   0  0  0  0  0  0  0  0  0  0  0  0
  1  2  1  0
  2  8  1  0
  3  5  2  0
  3  7  1  0
  3  4  1  0
  7  6  1  0
  7  1  1  0
  9  8  1  0
M  END
$$$$

     RDKit          3D

 11 10  0  0  0  0  0  0  0  0999 V2000
   35.6460   35.6470   21.4080 O   0  0  0  0  0  0  0  0  0  0  0  0
   35.9540   37.9550   21.6630 C   0  0  0  0  0  0  0  0  0  0  0  0
   36.5470   36.5660   22.0800 C   0  0  0  0  0  0  0  0  0  0  0  0
   37.2590   38.1560   25.6360 O   0  0  0  0  0  0  0  0  0  0  0  0
   40.0300   37.3420   26.4740 C   0  0  0  0  0  0  0  0  0  0  0  0
   38.3700   38.3390   23.4460 O   0  0  0  0  0  0  0  0  0  0  0  0
   37.7830   37.3840   24.3090 S   0  0  0  0  0  0  0  0  0  0  0  0
   40.0020   34.8990   26.5540 C   0  0  0  0  0  0  0  0  0  0  0  0
   36.5450   36.4150   23.6000 C   0  0  0  0  0  0  0  0  0  0  0  0
   39.6870   36.0840   25.6460 C   0  0  0  0  0  0  0  0  0  0  0  0
   38.2170   35.8200   25.2450 C   0  0  0  0  0  0  0  0  0  0  0  0
  1  3  1  0
  3  2  1  0
  3  9  1  0
  6  7  2  0
  7 11  1  0
  7  4  2  0
  9  7  1  0
 10  5  1  0
 10  8  1  0
 11 10  1  0
M  END
$$$$

     RDKit          3D

 12 12  0  0  0  0  0  0  0  0999 V2000
   37.5980   32.4790   31.2490 C   0  0  0  0  0  0  0  0  0  0  0  0
   40.6860   33.3980   30.7570 O   0  0  0  0  0  0  0  0  0  0  0  0
   35.3690   33.7240   30.9850 C   0  0  0  0  0  0  0  0  0  0  0  0
   36.0720   34.1510   31.9380 O   0  0  0  0  0  0  0  0  0  0  0  0
   35.2460   31.4460   30.7470 C   0  0  0  0  0  0  0  0  0  0  0  0
   39.5500   32.3840   30.9870 P   0  0  0  0  0  0  0  0  0  0  0  0
   39.8840   31.5250   32.4910 C   0  0  0  0  0  0  0  0  0  0  0  0
   36.2310   32.5330   30.4880 C   0  0  0  0  0  0  0  0  0  0  0  0
   39.5190   31.5450   29.8120 O   0  0  0  0  0  0  0  0  0  0  0  0
   37.5830   33.8020   31.8900 C   0  0  0  0  0  0  0  0  0  0  0  0
   38.0540   34.1680   33.2160 C   0  0  0  0  0  0  0  0  0  0  0  0
   36.4630   32.7600   29.0040 C   0  0  0  0  0  0  0  0  0  0  0  0
  1  6  1  0
  1 10  1  0
  2  6  1  0
  3  4  1  0
  6  7  1  0
  8  5  1  0
  8  3  1  0
  8  1  1  0
  9  6  2  0
 10  4  1  0
 10 11  1  0
 12  8  1  0
M  END
$$$$

     RDKit          3D

 14 14  0  0  0  0  0  0  0  0999 V2000
   39.8360   36.2100   21.7370 C   0  0  0  0  0  0  0  0  0  0  0  0
   35.3100   33.8710   28.0450 O   0  0  0  0  0  0  0  0  0  0  0  0
   37.2260   35.5360   28.7800 O   0  0  0  0  0  0  0  0  0  0  0  0
   35.9750   34.6220   27.0300 C   0  0  0  0  0  0  0  0  0  0  0  0
   36.0050   33.7410   25.7700 C   0  0  0  0  0  0  0  0  0  0  0  0
   37.1960   35.3200   27.5550 C   0  0  0  0  0  0  0  0  0  0  0  0
   37.9970   35.2510   25.2180 C   0  0  0  0  0  0  0  0  0  0  0  0
   39.5760   37.7210   23.6870 O   0  0  0  0  0  0  0  0  0  0  0  0
   37.0440   35.2610   21.9880 C   0  0  0  0  0  0  0  0  0  0  0  0
   38.4510   35.3580   26.6410 C   0  0  0  0  0  0  0  0  0  0  0  0
   39.1180   36.4620   23.0850 C   0  0  0  0  0  0  0  0  0  0  0  0
   39.2130   35.3490   24.2160 C   0  0  0  0  0  0  0  0  0  0  0  0
   37.6670   36.5020   22.4890 C   0  0  0  0  0  0  0  0  0  0  0  0
   37.2430   33.9430   24.8710 C   0  0  0  0  0  0  0  0  0  0  0  0
  4  6  1  0
  4  2  1  0
  5  4  1  0
  6  3  2  0
  7 12  1  0
  7 10  1  0
  9 13  1  0
 10  6  1  0
 11  1  1  0
 11  8  1  0
 11 12  1  0
 13 11  1  0
 14  7  1  0
 14  5  1  0
M  END
$$$$

     RDKit          3D

  7  6  0  0  0  0  0  0  0  0999 V2000
   36.9910   35.3610   20.5900 C   0  0  0  0  0  0  0  0  0  0  0  0
   37.5270   34.2560   20.1250 O   0  0  0  0  0  0  0  0  0  0  0  0
   37.3100   36.4340   20.0440 O   0  0  0  0  0  0  0  0  0  0  0  0
   36.3690   35.1220   21.8740 C   0  0  0  0  0  0  0  0  0  0  0  0
   36.4540   36.4270   22.6590 C   0  0  0  0  0  0  0  0  0  0  0  0
   35.6120   37.5250   22.2730 O   0  0  0  0  0  0  0  0  0  0  0  0
   36.9430   33.9210   22.4820 N   0  0  0  0  0  0  0  0  0  0  0  0
  1  4  1  0
  2  1  1  0
  3  1  2  0
  4  7  1  0
  4  5  1  0
  6  5  1  0
M  END
$$$$

     RDKit          3D

  7  7  0  0  0  0  0  0  0  0999 V2000
   35.4400   33.7980   21.4550 P   0  0  0  0  0  0  0  0  0  0  0  0
   35.8040   35.2240   21.1360 O   0  0  0  0  0  0  0  0  0  0  0  0
   35.1020   34.8730   22.5520 C   0  0  0  0  0  0  0  0  0  0  0  0
   36.5800   32.9260   21.9210 O   0  0  0  0  0  0  0  0  0  0  0  0
   33.7960   35.4370   22.5430 O   0  0  0  0  0  0  0  0  0  0  0  0
   34.2780   33.2300   20.7350 O   0  0  0  0  0  0  0  0  0  0  0  0
   35.9050   35.1550   23.5230 O   0  0  0  0  0  0  0  0  0  0  0  0
  1  6  2  0
  1  4  1  0
  1  3  1  0
  2  1  1  0
  2  3  1  0
  3  7  1  0
  5  3  1  0
M  END
$$$$

     RDKit          3D

 13 13  0  0  0  0  0  0  0  0999 V2000
   38.0730   35.2490   27.2580 C   0  0  0  0  0  0  0  0  0  0  0  0
   39.8220   38.5180   23.9290 O   0  0  0  0  0  0  0  0  0  0  0  0
   38.8550   37.2630   25.6920 C   0  0  0  0  0  0  0  0  0  0  0  0
   39.3090   37.1360   27.0500 O   0  0  0  0  0  0  0  0  0  0  0  0
   38.2720   34.3220   29.3620 O   0  0  0  0  0  0  0  0  0  0  0  0
   40.0160   37.9150   24.9770 C   0  0  0  0  0  0  0  0  0  0  0  0
   38.1970   35.9390   23.7960 O   0  0  0  0  0  0  0  0  0  0  0  0
   38.7460   36.3390   29.5100 O   0  0  0  0  0  0  0  0  0  0  0  0
   36.9430   34.7250   27.1790 O   0  0  0  0  0  0  0  0  0  0  0  0
   41.1540   37.6330   25.4550 O   0  0  0  0  0  0  0  0  0  0  0  0
   37.7210   36.9300   24.6580 C   0  0  0  0  0  0  0  0  0  0  0  0
   39.0350   35.9600   26.3230 C   0  0  0  0  0  0  0  0  0  0  0  0
   38.5070   35.3850   28.7580 C   0  0  0  0  0  0  0  0  0  0  0  0
  1 13  1  0
  2  6  2  0
  3 11  1  0
  3 12  1  0
  3  4  1  0
  6 10  1  0
  6  3  1  0
  7 11  1  0
  9  1  2  0
 12  4  1  0
 12  1  1  0
 13  5  2  0
 13  8  1  0
M  END
$$$$
