
     RDKit          3D

 13 12  0  0  0  0  0  0  0  0999 V2000
   36.4090   36.8950   28.1040 C   0  0  0  0  0  0  0  0  0  0  0  0
   37.5040   34.4430   29.2420 C   0  0  0  0  0  0  0  0  0  0  0  0
   37.7930   37.6680   27.5330 S   0  0  0  0  0  0  0  0  0  0  0  0
   34.1740   35.9740   27.9300 N   0  0  0  0  0  0  0  0  0  0  0  0
   38.9240   37.4760   28.4970 C   0  0  0  0  0  0  0  0  0  0  0  0
   36.9860   35.8020   29.0450 C   0  0  0  0  0  0  0  0  0  0  0  0
   39.8580   38.7440   28.5440 C   0  0  0  0  0  0  0  0  0  0  0  0
   36.6640   36.2180   30.3180 O   0  0  0  0  0  0  0  0  0  0  0  0
   37.8840   38.6210   26.3320 N   0  0  0  0  0  0  0  0  0  0  0  0
   34.9690   36.8190   28.4390 C   0  0  0  0  0  0  0  0  0  0  0  0
   34.4690   37.3930   29.3970 O   0  0  0  0  0  0  0  0  0  0  0  0
   38.8600   33.9570   28.8420 C   0  0  0  0  0  0  0  0  0  0  0  0
   36.7730   33.6080   29.9410 O   0  0  0  0  0  0  0  0  0  0  0  0
  1 10  1  0
  1  6  1  0
  2 12  1  0
  2 13  1  0
  3  9  2  0
  3  1  1  0
  3  5  1  0
  4 10  1  0
  5  7  1  0
  6  2  1  0
  6  8  1  0
 10 11  2  0
M  END
$$$$

     RDKit          3D

  5  4  0  0  0  0  0  0  0  0999 V2000
   41.0670   37.6320   26.6840 O   0  0  0  0  0  0  0  0  0  0  0  0
   41.3870   36.6610   25.9450 C   0  0  0  0  0  0  0  0  0  0  0  0
   40.2750   35.8370   25.3350 C   0  0  0  0  0  0  0  0  0  0  0  0
   42.6070   36.3430   25.6270 O   0  0  0  0  0  0  0  0  0  0  0  0
   40.5670   35.5870   23.8510 C   0  0  0  0  0  0  0  0  0  0  0  0
  2  1  1  0
  3  2  1  0
  4  2  2  0
  5  3  1  0
M  END
$$$$

     RDKit          3D

 10  9  0  0  0  0  0  0  0  0999 V2000
   38.8860   37.4820   29.3720 C   0  0  0  0  0  0  0  0  0  0  0  0
   40.9920   39.2370   26.6230 C   0  0  0  0  0  0  0  0  0  0  0  0
   41.4680   34.6050   27.5340 O   0  0  0  0  0  0  0  0  0  0  0  0
   41.3380   36.4490   26.3650 C   0  0  0  0  0  0  0  0  0  0  0  0
   39.8560   38.4000   26.7830 N   0  0  0  0  0  0  0  0  0  0  0  0
   38.3840   37.0700   28.0440 N   0  0  0  0  0  0  0  0  0  0  0  0
   37.1070   37.6570   27.7050 C   0  0  0  0  0  0  0  0  0  0  0  0
   39.0450   36.2140   27.2780 C   0  0  0  0  0  0  0  0  0  0  0  0
   41.5520   35.0260   26.6190 C   0  0  0  0  0  0  0  0  0  0  0  0
   40.0690   37.0490   26.8960 C   0  0  0  0  0  0  0  0  0  0  0  0
  2  5  1  0
  4  9  1  0
  5 10  1  0
  6  1  1  0
  7  6  1  0
  8  6  1  0
  9  3  2  0
 10  4  1  0
 10  8  1  0
M  END
$$$$

     RDKit          3D

 21 24  0  0  0  0  0  0  0  0999 V2000
   36.6220   29.1530   30.0590 C   0  0  0  0  0  0  0  0  0  0  0  0
   37.7250   29.9470   29.6240 C   0  0  0  0  0  0  0  0  0  0  0  0
   39.4520   36.2370   26.8860 C   0  0  0  0  0  0  0  0  0  0  0  0
   35.6800   33.0860   29.3400 N   0  0  0  0  0  0  0  0  0  0  0  0
   35.1070   30.9180   29.8470 C   0  0  0  0  0  0  0  0  0  0  0  0
   40.2490   38.5960   27.8970 C   0  0  0  0  0  0  0  0  0  0  0  0
   40.2520   39.5980   28.9490 C   0  0  0  0  0  0  0  0  0  0  0  0
   36.1510   31.8420   29.4750 C   0  0  0  0  0  0  0  0  0  0  0  0
   36.5100   33.9900   28.9090 C   0  0  0  0  0  0  0  0  0  0  0  0
   38.2630   32.3030   28.8350 C   0  0  0  0  0  0  0  0  0  0  0  0
   32.9890   32.1060   30.1380 N   0  0  0  0  0  0  0  0  0  0  0  0
   39.6730   38.2610   29.1130 N   0  0  0  0  0  0  0  0  0  0  0  0
   37.8250   33.6360   28.7400 C   0  0  0  0  0  0  0  0  0  0  0  0
   38.4410   34.7260   28.5600 N   0  0  0  0  0  0  0  0  0  0  0  0
   35.3090   29.5920   30.0990 C   0  0  0  0  0  0  0  0  0  0  0  0
   33.9610   31.5190   30.1100 C   0  0  0  0  0  0  0  0  0  0  0  0
   37.4130   31.2560   29.1760 C   0  0  0  0  0  0  0  0  0  0  0  0
   38.4550   37.5150   28.8730 C   0  0  0  0  0  0  0  0  0  0  0  0
   39.6170   35.0310   27.8240 C   0  0  0  0  0  0  0  0  0  0  0  0
   39.2160   38.3520   26.8780 C   0  0  0  0  0  0  0  0  0  0  0  0
   38.5200   37.2050   27.4060 C   0  0  0  0  0  0  0  0  0  0  0  0
  1 15  1  0
  2  1  2  0
  3 19  1  0
  4  8  1  0
  5 15  2  0
  5 16  1  0
  6 20  1  0
  6  7  1  0
  6 12  1  0
  7 12  1  0
  8  5  1  0
  9  4  2  0
 10 17  1  0
 12 18  1  0
 13 10  2  0
 13  9  1  0
 14 13  1  0
 16 11  3  0
 17  8  2  0
 17  2  1  0
 19 14  1  0
 20 21  1  0
 21  3  1  0
 21 18  1  0
M  END
$$$$

     RDKit          3D

  8  7  0  0  0  0  0  0  0  0999 V2000
   42.6490   35.6020   25.1490 N   0  0  0  0  0  0  0  0  0  0  0  0
   40.9090   36.0350   23.3330 C   0  0  0  0  0  0  0  0  0  0  0  0
   42.4910   38.3930   25.6490 O   0  0  0  0  0  0  0  0  0  0  0  0
   39.1650   36.3620   22.9790 S   0  0  0  0  0  0  0  0  0  0  0  0
   41.1600   37.7940   25.4540 P   0  0  0  0  0  0  0  0  0  0  0  0
   40.5870   37.4700   26.8310 O   0  0  0  0  0  0  0  0  0  0  0  0
   41.4440   36.2490   24.7730 C   0  0  0  0  0  0  0  0  0  0  0  0
   40.0830   38.4970   24.6190 O   0  0  0  0  0  0  0  0  0  0  0  0
  2  7  1  0
  4  2  1  0
  5  3  1  0
  5  6  1  0
  7  1  1  0
  7  5  1  0
  8  5  2  0
M  END
$$$$

     RDKit          3D

 13 14  0  0  0  0  0  0  0  0999 V2000
   37.4560   37.4510   27.8530 C   0  0  0  0  0  0  0  0  0  0  0  0
   39.4820   39.0570   27.0890 C   0  0  0  0  0  0  0  0  0  0  0  0
   37.5390   34.1360   29.2830 C   0  0  0  0  0  0  0  0  0  0  0  0
   38.8460   33.7400   29.0550 C   0  0  0  0  0  0  0  0  0  0  0  0
   37.0850   35.4050   28.9470 C   0  0  0  0  0  0  0  0  0  0  0  0
   35.8350   36.0570   28.9030 N   0  0  0  0  0  0  0  0  0  0  0  0
   36.0290   37.0660   27.9870 C   0  0  0  0  0  0  0  0  0  0  0  0
   39.3680   35.9440   28.1770 C   0  0  0  0  0  0  0  0  0  0  0  0
   38.0690   38.6300   27.3680 O   0  0  0  0  0  0  0  0  0  0  0  0
   39.7500   34.6400   28.5190 C   0  0  0  0  0  0  0  0  0  0  0  0
   34.6770   35.7750   29.7770 C   0  0  0  0  0  0  0  0  0  0  0  0
   35.1600   37.6420   27.1420 N   0  0  0  0  0  0  0  0  0  0  0  0
   38.0520   36.3210   28.3320 C   0  0  0  0  0  0  0  0  0  0  0  0
  1  7  2  0
  1 13  1  0
  2  9  1  0
  4  3  1  0
  5  3  2  0
  6  5  1  0
  6 11  1  0
  7  6  1  0
  8 13  2  0
  8 10  1  0
  9  1  1  0
 10  4  2  0
 12  7  1  0
 13  5  1  0
M  END
$$$$

     RDKit          3D

  6  7  0  0  0  0  0  0  0  0999 V2000
   37.4860   33.1960   26.1600 C   0  0  0  0  0  0  0  0  0  0  0  0
   38.7970   33.3670   25.8290 O   0  0  0  0  0  0  0  0  0  0  0  0
   36.5890   31.2880   25.1220 O   0  0  0  0  0  0  0  0  0  0  0  0
   37.2190   34.6790   25.8300 N   0  0  0  0  0  0  0  0  0  0  0  0
   36.2770   32.3190   26.1320 C   0  0  0  0  0  0  0  0  0  0  0  0
   36.2110   33.8620   26.0900 C   0  0  0  0  0  0  0  0  0  0  0  0
  1  2  1  0
  4  1  1  0
  5  3  1  0
  5  1  1  0
  6  4  1  0
  6  5  1  0
  6  1  1  0
M  END
$$$$

     RDKit          3D

  9  8  0  0  0  0  0  0  0  0999 V2000
   40.7330   35.6210   25.0050 C   0  0  0  0  0  0  0  0  0  0  0  0
   41.2380   36.2550   27.3530 C   0  0  0  0  0  0  0  0  0  0  0  0
   39.8330   36.2470   23.8400 C   0  0  0  0  0  0  0  0  0  0  0  0
   37.6740   38.4240   26.3640 O   0  0  0  0  0  0  0  0  0  0  0  0
   40.2080   36.3160   26.2300 C   0  0  0  0  0  0  0  0  0  0  0  0
   38.3980   37.7980   25.3950 C   0  0  0  0  0  0  0  0  0  0  0  0
   39.7970   37.6260   25.8980 C   0  0  0  0  0  0  0  0  0  0  0  0
   39.8750   37.3800   23.5150 O   0  0  0  0  0  0  0  0  0  0  0  0
   39.1640   35.3480   23.2970 O   0  0  0  0  0  0  0  0  0  0  0  0
  1  5  1  0
  3  1  1  0
  5  2  1  0
  6  7  1  0
  6  4  1  0
  7  5  1  0
  8  3  1  0
  9  3  2  0
M  END
$$$$

     RDKit          3D

 35 38  0  0  0  0  0  0  0  0999 V2000
   35.3060   30.4500   30.9950 O   0  0  0  0  0  0  0  0  0  0  0  0
   37.2150   37.5670   21.1200 C   0  0  0  0  0  0  0  0  0  0  0  0
   36.6730   39.7950   24.1820 N   0  0  0  0  0  0  0  0  0  0  0  0
   34.2430   32.8790   29.6090 C   0  0  0  0  0  0  0  0  0  0  0  0
   38.1960   38.4570   25.4920 N   0  0  0  0  0  0  0  0  0  0  0  0
   36.7760   29.0720   29.6980 C   0  0  0  0  0  0  0  0  0  0  0  0
   35.5500   33.2610   29.4600 N   0  0  0  0  0  0  0  0  0  0  0  0
   36.2840   29.4240   30.8830 C   0  0  0  0  0  0  0  0  0  0  0  0
   37.0590   36.8750   27.1090 O   0  0  0  0  0  0  0  0  0  0  0  0
   35.8650   37.7000   23.3190 C   0  0  0  0  0  0  0  0  0  0  0  0
   36.6250   35.3790   29.1610 N   0  0  0  0  0  0  0  0  0  0  0  0
   32.4940   31.2260   29.3180 O   0  0  0  0  0  0  0  0  0  0  0  0
   39.9080   37.5840   27.2560 C   0  0  0  0  0  0  0  0  0  0  0  0
   35.6280   34.5540   29.2580 C   0  0  0  0  0  0  0  0  0  0  0  0
   37.3840   39.5360   25.3320 C   0  0  0  0  0  0  0  0  0  0  0  0
   36.0400   39.3980   21.6950 C   0  0  0  0  0  0  0  0  0  0  0  0
   39.3160   38.6840   26.4120 C   0  0  0  0  0  0  0  0  0  0  0  0
   37.8960   35.1800   28.5410 C   0  0  0  0  0  0  0  0  0  0  0  0
   37.4600   40.4190   26.2000 O   0  0  0  0  0  0  0  0  0  0  0  0
   39.3110   36.2380   26.8360 C   0  0  0  0  0  0  0  0  0  0  0  0
   40.2480   35.1780   26.9830 O   0  0  0  0  0  0  0  0  0  0  0  0
   33.4000   33.8850   29.5510 C   0  0  0  0  0  0  0  0  0  0  0  0
   38.6750   27.4370   31.5470 C   0  0  0  0  0  0  0  0  0  0  0  0
   36.7040   38.9100   23.0000 C   0  0  0  0  0  0  0  0  0  0  0  0
   33.7440   31.5890   29.6980 C   0  0  0  0  0  0  0  0  0  0  0  0
   36.2280   37.0320   21.9940 C   0  0  0  0  0  0  0  0  0  0  0  0
   37.9290   28.0820   32.2420 C   0  0  0  0  0  0  0  0  0  0  0  0
   38.7370   27.5800   30.2200 C   0  0  0  0  0  0  0  0  0  0  0  0
   34.6370   30.5700   29.7890 N   0  0  0  0  0  0  0  0  0  0  0  0
   36.8390   28.9360   32.1080 C   0  0  0  0  0  0  0  0  0  0  0  0
   34.0810   35.4120   29.2300 S   0  0  0  0  0  0  0  0  0  0  0  0
   41.2310   37.4020   26.9620 N   0  0  0  0  0  0  0  0  0  0  0  0
   35.9580   38.0740   21.0020 N   0  0  0  0  0  0  0  0  0  0  0  0
   38.1910   36.3830   27.6850 C   0  0  0  0  0  0  0  0  0  0  0  0
   37.8590   28.2790   29.4530 C   0  0  0  0  0  0  0  0  0  0  0  0
  3 15  1  0
  4 25  1  0
  5 17  1  0
  6  8  1  0
  7  4  1  0
  8  1  1  0
  8 30  1  0
 11 14  1  0
 12 25  2  0
 13 32  1  0
 14  7  2  0
 15  5  1  0
 15 19  2  0
 16 24  1  0
 17 13  1  0
 18 11  1  0
 20 21  1  0
 20 13  1  0
 20 34  1  0
 22  4  2  0
 23 27  1  0
 24 10  1  0
 24  3  1  0
 25 29  1  0
 26  2  1  0
 26 10  1  0
 28 23  2  0
 29  1  1  0
 30 27  2  0
 31 14  1  0
 31 22  1  0
 33  2  1  0
 33 16  1  0
 33 26  1  0
 34  9  1  0
 34 18  1  0
 35  6  2  0
 35 28  1  0
M  END
$$$$

     RDKit          3D

 10 11  0  0  0  0  0  0  0  0999 V2000
   36.2260   35.5250   29.3050 C   0  0  0  0  0  0  0  0  0  0  0  0
   34.2390   36.2700   28.8490 C   0  0  0  0  0  0  0  0  0  0  0  0
   34.1210   34.7960   28.9680 C   0  0  0  0  0  0  0  0  0  0  0  0
   35.9150   37.6930   29.5030 O   0  0  0  0  0  0  0  0  0  0  0  0
   37.6210   33.8480   29.8380 C   0  0  0  0  0  0  0  0  0  0  0  0
   35.4380   36.5560   29.3030 C   0  0  0  0  0  0  0  0  0  0  0  0
   35.4780   34.3480   29.3680 C   0  0  0  0  0  0  0  0  0  0  0  0
   37.6670   35.3240   29.4240 C   0  0  0  0  0  0  0  0  0  0  0  0
   36.2220   33.1650   29.5660 C   0  0  0  0  0  0  0  0  0  0  0  0
   32.9030   34.2670   28.7040 O   0  0  0  0  0  0  0  0  0  0  0  0
  1  7  1  0
  1  8  1  0
  2  3  1  0
  2  6  1  0
  3  7  2  0
  6  1  1  0
  6  4  2  0
  7  9  1  0
  8  5  1  0
  9  5  1  0
 10  3  1  0
M  END
$$$$

     RDKit          3D

 14 15  0  0  0  0  0  0  0  0999 V2000
   38.6820   34.3310   28.9800 C   0  0  0  0  0  0  0  0  0  0  0  0
   37.4180   35.5780   27.7330 N   0  0  0  0  0  0  0  0  0  0  0  0
   39.2060   36.7660   26.1900 C   0  0  0  0  0  0  0  0  0  0  0  0
   32.6600   37.4540   32.7400 Cl  0  0  0  0  0  0  0  0  0  0  0  0
   35.3430   35.9750   28.9740 C   0  0  0  0  0  0  0  0  0  0  0  0
   33.4410   37.0610   30.1880 C   0  0  0  0  0  0  0  0  0  0  0  0
   34.2380   36.6700   29.1390 C   0  0  0  0  0  0  0  0  0  0  0  0
   37.6010   35.1610   29.1600 C   0  0  0  0  0  0  0  0  0  0  0  0
   35.9600   35.9330   31.1320 C   0  0  0  0  0  0  0  0  0  0  0  0
   33.7390   36.9320   31.5390 C   0  0  0  0  0  0  0  0  0  0  0  0
   38.6490   35.7680   27.2600 C   0  0  0  0  0  0  0  0  0  0  0  0
   39.4700   34.9740   27.8670 C   0  0  0  0  0  0  0  0  0  0  0  0
   36.4520   35.5620   29.8110 C   0  0  0  0  0  0  0  0  0  0  0  0
   34.8960   36.2590   31.8460 C   0  0  0  0  0  0  0  0  0  0  0  0
  2  8  1  0
  5  7  2  0
  6 10  2  0
  7  6  1  0
  8  1  1  0
  8 13  1  0
  9 14  2  0
 10 14  1  0
 10  4  1  0
 11  3  1  0
 11  2  1  0
 11 12  1  0
 12  1  1  0
 13  5  1  0
 13  9  1  0
M  END
$$$$

     RDKit          3D

  9  8  0  0  0  0  0  0  0  0999 V2000
   37.2000   33.1080   28.5230 O   0  0  0  0  0  0  0  0  0  0  0  0
   35.2150   33.0920   27.4410 O   0  0  0  0  0  0  0  0  0  0  0  0
   37.5540   37.3990   27.3700 O   0  0  0  0  0  0  0  0  0  0  0  0
   36.4350   33.7220   27.5240 C   0  0  0  0  0  0  0  0  0  0  0  0
   37.5610   36.0370   27.6270 C   0  0  0  0  0  0  0  0  0  0  0  0
   38.9070   35.4160   27.8380 C   0  0  0  0  0  0  0  0  0  0  0  0
   35.1700   35.5270   27.5840 O   0  0  0  0  0  0  0  0  0  0  0  0
   39.6890   35.4460   26.6580 O   0  0  0  0  0  0  0  0  0  0  0  0
   36.4490   35.2000   27.4310 C   0  0  0  0  0  0  0  0  0  0  0  0
  2  4  2  0
  4  1  1  0
  5  3  1  0
  5  6  1  0
  8  6  1  0
  9  4  1  0
  9  7  1  0
  9  5  1  0
M  END
$$$$

     RDKit          3D

  8  7  0  0  0  0  0  0  0  0999 V2000
   40.7480   39.6350   24.9350 C   0  0  0  0  0  0  0  0  0  0  0  0
   41.2220   38.2610   24.7880 C   0  0  0  0  0  0  0  0  0  0  0  0
   41.9260   39.8480   26.1540 C   0  0  0  0  0  0  0  0  0  0  0  0
   40.1540   34.8330   25.1980 O   0  0  0  0  0  0  0  0  0  0  0  0
   40.4950   37.0690   26.2350 O   0  0  0  0  0  0  0  0  0  0  0  0
   39.5450   40.0480   25.7620 C   0  0  0  0  0  0  0  0  0  0  0  0
   40.5780   37.2660   25.2950 C   0  0  0  0  0  0  0  0  0  0  0  0
   40.7610   35.9560   25.5380 C   0  0  0  0  0  0  0  0  0  0  0  0
  1  6  1  0
  1  3  1  0
  2  1  1  0
  2  7  1  0
  4  8  1  0
  7  5  1  0
  8  5  1  0
M  END
$$$$

     RDKit          3D

 10 10  0  0  0  0  0  0  0  0999 V2000
   36.2820   36.4730   28.6860 C   0  0  0  0  0  0  0  0  0  0  0  0
   36.9950   35.3310   28.8790 C   0  0  0  0  0  0  0  0  0  0  0  0
   38.2540   35.2370   28.4200 C   0  0  0  0  0  0  0  0  0  0  0  0
   34.3590   35.0060   29.5480 C   0  0  0  0  0  0  0  0  0  0  0  0
   37.0790   37.4920   28.2090 C   0  0  0  0  0  0  0  0  0  0  0  0
   38.9350   36.2030   27.7720 C   0  0  0  0  0  0  0  0  0  0  0  0
   38.3360   33.5160   28.8460 S   0  0  0  0  0  0  0  0  0  0  0  0
   34.8050   36.3840   29.0230 C   0  0  0  0  0  0  0  0  0  0  0  0
   38.2920   37.3990   27.6420 C   0  0  0  0  0  0  0  0  0  0  0  0
   33.8640   37.0520   28.3220 C   0  0  0  0  0  0  0  0  0  0  0  0
  1  2  1  0
  1  8  1  0
  3  7  1  0
  3  2  2  0
  5  1  2  0
  6  3  1  0
  8  4  1  0
  9  6  2  0
  9  5  1  0
 10  8  2  0
M  END
$$$$

     RDKit          3D

 15 17  0  0  0  0  0  0  0  0999 V2000
   37.6140   37.2890   28.4840 C   0  0  0  0  0  0  0  0  0  0  0  0
   41.4100   35.6620   27.3450 C   0  0  0  0  0  0  0  0  0  0  0  0
   35.5090   34.9160   31.6370 C   0  0  0  0  0  0  0  0  0  0  0  0
   36.9360   36.3100   29.2850 C   0  0  0  0  0  0  0  0  0  0  0  0
   38.4720   34.5500   28.8970 C   0  0  0  0  0  0  0  0  0  0  0  0
   38.1290   36.4800   26.3530 C   0  0  0  0  0  0  0  0  0  0  0  0
   42.6630   35.0480   24.6460 O   0  0  0  0  0  0  0  0  0  0  0  0
   41.0080   36.9240   26.6150 C   0  0  0  0  0  0  0  0  0  0  0  0
   39.9360   37.6980   27.4250 C   0  0  0  0  0  0  0  0  0  0  0  0
   37.5200   35.1660   29.0960 N   0  0  0  0  0  0  0  0  0  0  0  0
   36.0990   36.3320   30.6550 C   0  0  0  0  0  0  0  0  0  0  0  0
   40.7240   35.5160   26.0700 C   0  0  0  0  0  0  0  0  0  0  0  0
   38.8600   35.7100   28.4960 C   0  0  0  0  0  0  0  0  0  0  0  0
   41.2640   35.2630   24.7510 C   0  0  0  0  0  0  0  0  0  0  0  0
   38.7000   36.8430   27.7120 C   0  0  0  0  0  0  0  0  0  0  0  0
  1  4  1  0
  4 11  1  0
  7 14  1  0
  8  2  1  0
  8  9  1  0
  9 15  1  0
 10  5  1  0
 10  4  1  0
 11  3  1  0
 12 14  1  0
 12  8  1  0
 12  2  1  0
 13  5  1  0
 13 10  1  0
 15  6  1  0
 15  1  1  0
 15 13  1  0
M  END
$$$$

     RDKit          3D

  8  7  0  0  0  0  0  0  0  0999 V2000
   37.8310   37.0920   26.4400 N   0  0  0  0  0  0  0  0  0  0  0  0
   36.5080   37.6490   26.6120 C   0  0  0  0  0  0  0  0  0  0  0  0
   38.5660   36.1210   27.1300 C   0  0  0  0  0  0  0  0  0  0  0  0
   34.4340   37.4500   27.6680 O   0  0  0  0  0  0  0  0  0  0  0  0
   35.9890   37.8900   25.2020 C   0  0  0  0  0  0  0  0  0  0  0  0
   39.2520   35.3570   26.4220 O   0  0  0  0  0  0  0  0  0  0  0  0
   35.6280   36.7510   27.4040 C   0  0  0  0  0  0  0  0  0  0  0  0
   38.7360   36.2220   28.4070 N   0  0  0  0  0  0  0  0  0  0  0  0
  1  2  1  0
  1  3  1  0
  2  5  1  0
  2  7  1  0
  3  8  1  0
  6  3  2  0
  7  4  1  0
M  END
$$$$

     RDKit          3D

 29 31  0  0  0  0  0  0  0  0999 V2000
   38.8560   37.8900   26.7340 C   0  0  0  0  0  0  0  0  0  0  0  0
   34.2310   30.8720   32.9440 C   0  0  0  0  0  0  0  0  0  0  0  0
   34.9580   27.6200   31.6020 C   0  0  0  0  0  0  0  0  0  0  0  0
   34.7620   33.2030   32.3880 C   0  0  0  0  0  0  0  0  0  0  0  0
   40.7150   40.2310   22.4550 C   0  0  0  0  0  0  0  0  0  0  0  0
   41.1750   37.7360   27.2590 C   0  0  0  0  0  0  0  0  0  0  0  0
   40.2250   40.2300   23.9540 C   0  0  0  0  0  0  0  0  0  0  0  0
   42.8970   39.1470   26.4340 C   0  0  0  0  0  0  0  0  0  0  0  0
   38.0190   39.3750   24.8560 C   0  0  0  0  0  0  0  0  0  0  0  0
   39.9580   40.6070   21.3080 C   0  0  0  0  0  0  0  0  0  0  0  0
   36.2400   29.7790   31.5270 C   0  0  0  0  0  0  0  0  0  0  0  0
   38.2950   34.5940   29.1320 C   0  0  0  0  0  0  0  0  0  0  0  0
   34.3780   33.3150   33.8620 C   0  0  0  0  0  0  0  0  0  0  0  0
   39.1440   38.7820   25.6470 C   0  0  0  0  0  0  0  0  0  0  0  0
   35.1140   29.1330   32.0210 C   0  0  0  0  0  0  0  0  0  0  0  0
   33.6170   34.6460   34.1210 C   0  0  0  0  0  0  0  0  0  0  0  0
   37.0280   33.4080   30.6120 N   0  0  0  0  0  0  0  0  0  0  0  0
   39.8810   37.1330   27.4570 C   0  0  0  0  0  0  0  0  0  0  0  0
   41.4310   38.8300   26.4850 C   0  0  0  0  0  0  0  0  0  0  0  0
   39.3930   35.7880   28.2880 C   0  0  0  0  0  0  0  0  0  0  0  0
   36.1830   31.1760   31.6400 C   0  0  0  0  0  0  0  0  0  0  0  0
   43.6710   39.3180   25.1960 C   0  0  0  0  0  0  0  0  0  0  0  0
   38.3370   33.8420   29.9120 C   0  0  0  0  0  0  0  0  0  0  0  0
   34.9890   31.7490   32.0960 C   0  0  0  0  0  0  0  0  0  0  0  0
   38.7370   40.4890   23.9880 C   0  0  0  0  0  0  0  0  0  0  0  0
   40.5030   39.4260   25.3630 C   0  0  0  0  0  0  0  0  0  0  0  0
   34.3560   29.6240   33.0010 C   0  0  0  0  0  0  0  0  0  0  0  0
   35.9080   34.3040   30.3630 C   0  0  0  0  0  0  0  0  0  0  0  0
   34.3460   34.5630   31.3310 S   0  0  0  0  0  0  0  0  0  0  0  0
  1 18  1  0
  2 27  1  0
  3 15  1  0
  4 13  1  0
  6 18  1  0
  7  5  1  0
  7 25  1  0
  7 26  1  0
 10  5  1  0
 11 21  1  0
 11 15  1  0
 12 23  1  0
 13 16  1  0
 14  9  1  0
 14  1  1  0
 15 27  1  0
 18 20  2  0
 19  8  1  0
 19  6  1  0
 20 12  2  0
 21 24  1  0
 22  8  1  0
 23 17  1  0
 24  4  1  0
 24  2  1  0
 25  9  1  0
 26 14  1  0
 26 19  1  0
 28 17  1  0
 28 29  1  0
 29  4  1  0
M  END
$$$$

     RDKit          3D

 20 22  0  0  0  0  0  0  0  0999 V2000
   40.1490   38.1930   26.2430 C   0  0  0  0  0  0  0  0  0  0  0  0
   43.1690   36.4860   26.9630 C   0  0  0  0  0  0  0  0  0  0  0  0
   39.0750   38.0620   25.3420 O   0  0  0  0  0  0  0  0  0  0  0  0
   37.3470   37.5140   27.6540 O   0  0  0  0  0  0  0  0  0  0  0  0
   37.4120   35.3910   28.8500 C   0  0  0  0  0  0  0  0  0  0  0  0
   38.2180   34.3000   29.0570 C   0  0  0  0  0  0  0  0  0  0  0  0
   37.8780   36.4090   28.0170 C   0  0  0  0  0  0  0  0  0  0  0  0
   41.0070   37.0900   26.5580 N   0  0  0  0  0  0  0  0  0  0  0  0
   42.2980   35.2660   27.0640 O   0  0  0  0  0  0  0  0  0  0  0  0
   37.7410   33.2860   29.8200 F   0  0  0  0  0  0  0  0  0  0  0  0
   39.0280   36.1410   27.3230 O   0  0  0  0  0  0  0  0  0  0  0  0
   41.0140   35.5720   26.5610 C   0  0  0  0  0  0  0  0  0  0  0  0
   36.1290   35.4980   29.3260 F   0  0  0  0  0  0  0  0  0  0  0  0
   40.9380   39.3840   26.5050 C   0  0  0  0  0  0  0  0  0  0  0  0
   39.4510   34.1280   28.5690 C   0  0  0  0  0  0  0  0  0  0  0  0
   42.2150   37.6410   26.6500 C   0  0  0  0  0  0  0  0  0  0  0  0
   42.2300   38.9680   26.2970 C   0  0  0  0  0  0  0  0  0  0  0  0
   39.9230   35.0240   27.4850 C   0  0  0  0  0  0  0  0  0  0  0  0
   36.0660   38.0010   27.7460 C   0  0  0  0  0  0  0  0  0  0  0  0
   40.6950   35.2200   25.2750 O   0  0  0  0  0  0  0  0  0  0  0  0
  1 14  1  0
  1  8  1  0
  2  9  1  0
  3  1  2  0
  4 19  1  0
  5  6  2  0
  5 13  1  0
  6 10  1  0
  7  4  1  0
  7  5  1  0
  8 12  1  0
  8 16  1  0
 11 18  1  0
 11  7  1  0
 12 20  1  0
 12  9  1  0
 12 18  1  0
 15  6  1  0
 16 17  1  0
 16  2  1  0
 17 14  1  0
 18 15  2  0
M  END
$$$$

     RDKit          3D

 16 16  0  0  0  0  0  0  0  0999 V2000
   35.1520   36.1090   29.9840 C   0  0  0  0  0  0  0  0  0  0  0  0
   31.9840   35.9440   30.5920 C   0  0  0  0  0  0  0  0  0  0  0  0
   40.7170   35.2480   26.9220 C   0  0  0  0  0  0  0  0  0  0  0  0
   41.2590   37.6570   26.8320 C   0  0  0  0  0  0  0  0  0  0  0  0
   37.1250   35.2670   28.4440 O   0  0  0  0  0  0  0  0  0  0  0  0
   36.7060   36.4880   28.2530 C   0  0  0  0  0  0  0  0  0  0  0  0
   33.8980   35.5150   29.5370 N   0  0  0  0  0  0  0  0  0  0  0  0
   38.9980   36.9520   27.3010 C   0  0  0  0  0  0  0  0  0  0  0  0
   33.1420   35.5070   30.8160 C   0  0  0  0  0  0  0  0  0  0  0  0
   37.6110   37.3990   27.5160 C   0  0  0  0  0  0  0  0  0  0  0  0
   39.9580   37.9780   27.2610 C   0  0  0  0  0  0  0  0  0  0  0  0
   31.2550   34.6600   30.3170 C   0  0  0  0  0  0  0  0  0  0  0  0
   35.5880   36.9720   28.9910 C   0  0  0  0  0  0  0  0  0  0  0  0
   37.2920   38.5680   27.7550 O   0  0  0  0  0  0  0  0  0  0  0  0
   41.5700   36.3120   26.5580 C   0  0  0  0  0  0  0  0  0  0  0  0
   39.3900   35.5860   27.2690 C   0  0  0  0  0  0  0  0  0  0  0  0
  2  9  1  0
  3 16  1  0
  4 11  2  0
  6  5  1  0
  6 13  1  0
  7  1  1  0
  7  9  1  0
  8 10  1  0
 10 14  2  0
 10  6  1  0
 11  8  1  0
 12  2  1  0
 13  1  1  0
 15  4  1  0
 15  3  2  0
 16  8  2  0
M  END
$$$$

     RDKit          3D

 13 15  0  0  0  0  0  0  0  0999 V2000
   38.9160   35.6850   27.7650 C   0  0  0  0  0  0  0  0  0  0  0  0
   41.0620   35.5610   27.0680 C   0  0  0  0  0  0  0  0  0  0  0  0
   39.4380   37.6650   26.1350 C   0  0  0  0  0  0  0  0  0  0  0  0
   38.0000   35.5040   28.8730 C   0  0  0  0  0  0  0  0  0  0  0  0
   42.5790   37.0470   25.4010 O   0  0  0  0  0  0  0  0  0  0  0  0
   40.3970   36.6960   26.2470 C   0  0  0  0  0  0  0  0  0  0  0  0
   36.7610   38.1530   26.7730 O   0  0  0  0  0  0  0  0  0  0  0  0
   41.2110   36.8390   25.2600 C   0  0  0  0  0  0  0  0  0  0  0  0
   38.8510   36.9780   27.1540 C   0  0  0  0  0  0  0  0  0  0  0  0
   39.8910   34.7370   27.3480 C   0  0  0  0  0  0  0  0  0  0  0  0
   37.1190   36.7710   28.8420 C   0  0  0  0  0  0  0  0  0  0  0  0
   39.4190   38.8560   25.6930 O   0  0  0  0  0  0  0  0  0  0  0  0
   37.4140   37.3840   27.5000 C   0  0  0  0  0  0  0  0  0  0  0  0
  1 10  1  0
  1  4  1  0
  2 10  1  0
  3  6  1  0
  6  8  1  0
  6  2  1  0
  6  9  1  0
  7 13  2  0
  8  5  1  0
  9  3  1  0
  9 13  1  0
  9  1  1  0
 11  4  1  0
 12  3  2  0
 13 11  1  0
M  END
$$$$
