
     RDKit          3D

 12 11  0  0  0  0  0  0  0  0999 V2000
   39.9030   42.1780   34.0370 O   0  0  0  0  0  0  0  0  0  0  0  0
   38.9260   37.4770   34.4640 C   0  0  0  0  0  0  0  0  0  0  0  0
   36.6390   36.2520   34.2940 C   0  0  0  0  0  0  0  0  0  0  0  0
   39.7250   41.1980   34.8310 C   0  0  0  0  0  0  0  0  0  0  0  0
   36.5970   34.7790   34.4950 C   0  0  0  0  0  0  0  0  0  0  0  0
   39.0140   41.3950   35.8770 O   0  0  0  0  0  0  0  0  0  0  0  0
   40.8050   39.1290   35.3900 O   0  0  0  0  0  0  0  0  0  0  0  0
   40.5380   39.6850   33.0000 O   0  0  0  0  0  0  0  0  0  0  0  0
   40.0310   39.7670   34.3530 C   0  0  0  0  0  0  0  0  0  0  0  0
   38.7260   38.9670   34.2850 C   0  0  0  0  0  0  0  0  0  0  0  0
   37.7080   36.8880   34.9220 C   0  0  0  0  0  0  0  0  0  0  0  0
   37.7600   39.5610   33.8740 O   0  0  0  0  0  0  0  0  0  0  0  0
  1  4  2  0
  2 11  1  0
  3  5  1  0
  3 11  1  0
  4  6  1  0
  8  9  1  0
  9  4  1  0
  9  7  1  0
 10  9  1  0
 10  2  1  0
 12 10  2  0
M  END
$$$$

     RDKit          3D

 31 33  0  0  0  0  0  0  0  0999 V2000
   33.7600   31.0940   37.0430 C   0  0  0  0  0  0  0  0  0  0  0  0
   34.5490   33.6600   35.7530 N   0  0  0  0  0  0  0  0  0  0  0  0
   38.0300   38.8350   31.2680 C   0  0  0  0  0  0  0  0  0  0  0  0
   43.9460   41.5250   31.9770 C   0  0  0  0  0  0  0  0  0  0  0  0
   36.0660   35.6940   32.3260 C   0  0  0  0  0  0  0  0  0  0  0  0
   39.5450   41.3090   30.0900 C   0  0  0  0  0  0  0  0  0  0  0  0
   40.2460   39.7960   30.2570 C   0  0  0  0  0  0  0  0  0  0  0  0
   40.4620   43.3760   30.4960 O   0  0  0  0  0  0  0  0  0  0  0  0
   45.3380   44.7680   32.8450 C   0  0  0  0  0  0  0  0  0  0  0  0
   31.3590   32.1710   37.1200 C   0  0  0  0  0  0  0  0  0  0  0  0
   40.6390   42.2610   30.6550 C   0  0  0  0  0  0  0  0  0  0  0  0
   37.0000   35.2290   33.3300 N   0  0  0  0  0  0  0  0  0  0  0  0
   36.6740   36.7460   31.5150 C   0  0  0  0  0  0  0  0  0  0  0  0
   42.2220   43.1150   32.9420 C   0  0  0  0  0  0  0  0  0  0  0  0
   43.7610   42.7120   32.8960 C   0  0  0  0  0  0  0  0  0  0  0  0
   42.5760   40.8820   31.7100 C   0  0  0  0  0  0  0  0  0  0  0  0
   34.6120   33.9700   33.3930 O   0  0  0  0  0  0  0  0  0  0  0  0
   45.0030   43.5560   33.0160 C   0  0  0  0  0  0  0  0  0  0  0  0
   40.9670   39.3760   29.1290 O   0  0  0  0  0  0  0  0  0  0  0  0
   38.0990   37.3000   31.4550 C   0  0  0  0  0  0  0  0  0  0  0  0
   35.0130   33.5450   36.9380 C   0  0  0  0  0  0  0  0  0  0  0  0
   36.6540   34.7160   34.3740 C   0  0  0  0  0  0  0  0  0  0  0  0
   33.0380   33.8980   35.9130 C   0  0  0  0  0  0  0  0  0  0  0  0
   35.7670   37.3140   30.9220 O   0  0  0  0  0  0  0  0  0  0  0  0
   32.2420   32.6910   36.0710 N   0  0  0  0  0  0  0  0  0  0  0  0
   38.9740   40.1360   31.0440 C   0  0  0  0  0  0  0  0  0  0  0  0
   35.1060   34.4430   34.7630 C   0  0  0  0  0  0  0  0  0  0  0  0
   34.9030   32.0320   37.3360 C   0  0  0  0  0  0  0  0  0  0  0  0
   41.4590   41.9540   32.0100 C   0  0  0  0  0  0  0  0  0  0  0  0
   34.7760   34.9360   32.3610 C   0  0  0  0  0  0  0  0  0  0  0  0
   44.9920   43.3340   34.6800 C   0  0  0  0  0  0  0  0  0  0  0  0
  1 28  1  0
  2 23  1  0
  2 21  1  0
  3 20  1  0
  4 15  1  0
  5 30  2  0
  5 12  1  0
  6  7  1  0
  6 11  1  0
  6 26  1  0
  7 19  1  0
  7 26  1  0
  8 11  2  0
  9 18  1  0
 12 22  2  0
 13  5  1  0
 15 14  1  0
 15 18  1  0
 16  4  1  0
 16 29  1  0
 17 27  1  0
 18 31  1  0
 20 13  1  0
 21 28  1  0
 22 27  1  0
 23 25  1  0
 24 13  2  0
 25 10  1  0
 26  3  1  0
 27  2  1  0
 29 11  1  0
 29 14  1  0
 30 17  1  0
M  END
$$$$

     RDKit          3D

  8  8  0  0  0  0  0  0  0  0999 V2000
   38.4750   42.2210   31.2280 C   0  0  0  0  0  0  0  0  0  0  0  0
   39.0250   42.1680   32.4860 C   0  0  0  0  0  0  0  0  0  0  0  0
   39.9700   41.5430   32.4380 N   0  0  0  0  0  0  0  0  0  0  0  0
   38.7760   41.2520   30.2950 C   0  0  0  0  0  0  0  0  0  0  0  0
   41.7060   39.6280   29.4300 C   0  0  0  0  0  0  0  0  0  0  0  0
   40.3120   39.4830   29.7380 O   0  0  0  0  0  0  0  0  0  0  0  0
   40.6110   40.7870   31.6550 C   0  0  0  0  0  0  0  0  0  0  0  0
   39.9240   40.5710   30.5090 C   0  0  0  0  0  0  0  0  0  0  0  0
  1  2  1  0
  3  2  2  0
  4  8  1  0
  4  1  2  0
  5  6  1  0
  6  8  1  0
  7  3  1  0
  8  7  2  0
M  END
$$$$

     RDKit          3D

 12 12  0  0  0  0  0  0  0  0999 V2000
   40.3620   41.3410   29.2680 C   0  0  0  0  0  0  0  0  0  0  0  0
   38.3520   42.9130   29.6940 C   0  0  0  0  0  0  0  0  0  0  0  0
   37.6430   41.8580   30.3830 C   0  0  0  0  0  0  0  0  0  0  0  0
   41.1830   40.6880   28.1970 C   0  0  0  0  0  0  0  0  0  0  0  0
   37.3920   39.6090   31.0090 O   0  0  0  0  0  0  0  0  0  0  0  0
   41.6750   42.6240   26.8960 C   0  0  0  0  0  0  0  0  0  0  0  0
   41.1510   42.2120   28.2820 C   0  0  0  0  0  0  0  0  0  0  0  0
   38.4880   40.4660   28.6190 O   0  0  0  0  0  0  0  0  0  0  0  0
   38.3130   40.6720   30.8570 C   0  0  0  0  0  0  0  0  0  0  0  0
   38.5320   44.0540   30.4740 O   0  0  0  0  0  0  0  0  0  0  0  0
   40.1720   39.3200   30.4530 O   0  0  0  0  0  0  0  0  0  0  0  0
   39.3180   40.2970   29.7490 C   0  0  0  0  0  0  0  0  0  0  0  0
  1 12  1  0
  2  3  1  0
  2 10  1  0
  3  9  1  0
  4  7  1  0
  4  1  1  0
  7  6  1  0
  7  1  1  0
  8 12  1  0
  9  5  1  0
 12 11  1  0
 12  9  1  0
M  END
$$$$

     RDKit          3D

  9  9  0  0  0  0  0  0  0  0999 V2000
   40.0100   44.6440   32.1840 O   0  0  0  0  0  0  0  0  0  0  0  0
   38.2250   43.3330   31.6010 C   0  0  0  0  0  0  0  0  0  0  0  0
   41.0500   41.7910   32.6860 C   0  0  0  0  0  0  0  0  0  0  0  0
   39.6870   43.3590   31.8350 C   0  0  0  0  0  0  0  0  0  0  0  0
   40.0080   40.9900   31.9450 O   0  0  0  0  0  0  0  0  0  0  0  0
   42.2090   41.3770   31.7640 N   0  0  0  0  0  0  0  0  0  0  0  0
   40.3510   42.7750   30.7540 O   0  0  0  0  0  0  0  0  0  0  0  0
   41.1160   41.5450   33.9000 O   0  0  0  0  0  0  0  0  0  0  0  0
   40.6290   42.6290   31.9660 C   0  0  0  0  0  0  0  0  0  0  0  0
  3  8  1  0
  4  2  1  0
  4  9  1  0
  4  1  1  0
  5  3  1  0
  6  3  1  0
  7  4  1  0
  7  9  1  0
  9  3  1  0
M  END
$$$$

     RDKit          3D

  9  9  0  0  0  0  0  0  0  0999 V2000
   40.3190   42.4830   31.5280 O   0  0  0  0  0  0  0  0  0  0  0  0
   39.3910   41.2280   29.8330 N   0  0  0  0  0  0  0  0  0  0  0  0
   39.3140   41.1640   32.9640 O   0  0  0  0  0  0  0  0  0  0  0  0
   39.2750   42.0810   30.8360 C   0  0  0  0  0  0  0  0  0  0  0  0
   39.4190   39.8920   29.9440 C   0  0  0  0  0  0  0  0  0  0  0  0
   39.3870   40.3490   27.9020 C   0  0  0  0  0  0  0  0  0  0  0  0
   39.8240   42.3030   32.2450 C   0  0  0  0  0  0  0  0  0  0  0  0
   39.3390   41.3830   28.6580 C   0  0  0  0  0  0  0  0  0  0  0  0
   39.6430   39.4720   28.6550 N   0  0  0  0  0  0  0  0  0  0  0  0
  1  7  1  0
  2  5  1  0
  2  4  1  0
  4  1  1  0
  6  9  1  0
  6  8  1  0
  7  3  1  0
  8  2  1  0
  9  5  1  0
M  END
$$$$

     RDKit          3D

 20 20  0  0  0  0  0  0  0  0999 V2000
   41.8650   44.9690   33.0040 C   0  0  0  0  0  0  0  0  0  0  0  0
   40.9140   41.0760   32.9570 C   0  0  0  0  0  0  0  0  0  0  0  0
   38.2170   40.3640   32.5450 O   0  0  0  0  0  0  0  0  0  0  0  0
   37.9640   38.5000   31.0900 C   0  0  0  0  0  0  0  0  0  0  0  0
   41.6460   41.1620   31.8790 C   0  0  0  0  0  0  0  0  0  0  0  0
   36.2340   38.1350   32.7980 C   0  0  0  0  0  0  0  0  0  0  0  0
   35.4300   36.9570   33.2010 C   0  0  0  0  0  0  0  0  0  0  0  0
   41.8140   42.6620   31.9040 C   0  0  0  0  0  0  0  0  0  0  0  0
   38.6990   39.4560   31.8260 C   0  0  0  0  0  0  0  0  0  0  0  0
   39.9400   39.1240   31.4930 N   0  0  0  0  0  0  0  0  0  0  0  0
   36.0560   35.6860   33.0900 C   0  0  0  0  0  0  0  0  0  0  0  0
   42.9260   45.3640   32.3180 C   0  0  0  0  0  0  0  0  0  0  0  0
   40.4460   39.5390   30.2180 C   0  0  0  0  0  0  0  0  0  0  0  0
   37.5270   37.7280   32.2050 C   0  0  0  0  0  0  0  0  0  0  0  0
   41.8250   43.3830   33.2300 C   0  0  0  0  0  0  0  0  0  0  0  0
   44.2520   45.9540   32.9870 O   0  0  0  0  0  0  0  0  0  0  0  0
   42.9350   43.1060   31.0040 C   0  0  0  0  0  0  0  0  0  0  0  0
   41.3640   40.7350   30.4260 C   0  0  0  0  0  0  0  0  0  0  0  0
   41.9390   41.1020   29.4250 O   0  0  0  0  0  0  0  0  0  0  0  0
   43.6680   44.3760   31.3430 C   0  0  0  0  0  0  0  0  0  0  0  0
  1 15  1  0
  4  9  1  0
  4 14  1  0
  5  2  1  0
  6  7  1  0
  8  5  1  0
  8 15  1  0
  9  3  2  0
 10  9  1  0
 11  7  1  0
 12 16  1  0
 12  1  1  0
 13 18  1  0
 13 10  1  0
 14  6  1  0
 17 20  1  0
 17  8  1  0
 18  5  1  0
 19 18  2  0
 20 12  1  0
M  END
$$$$

     RDKit          3D

 10 10  0  0  0  0  0  0  0  0999 V2000
   38.5580   40.8750   32.9360 C   0  0  0  0  0  0  0  0  0  0  0  0
   39.6360   42.6430   34.1440 C   0  0  0  0  0  0  0  0  0  0  0  0
   37.6070   39.9380   32.7210 O   0  0  0  0  0  0  0  0  0  0  0  0
   39.7450   43.1710   32.6540 C   0  0  0  0  0  0  0  0  0  0  0  0
   38.2400   41.9870   33.9090 C   0  0  0  0  0  0  0  0  0  0  0  0
   40.9860   42.7800   34.7190 C   0  0  0  0  0  0  0  0  0  0  0  0
   40.4170   41.9870   31.9330 C   0  0  0  0  0  0  0  0  0  0  0  0
   40.0250   40.6500   32.5390 C   0  0  0  0  0  0  0  0  0  0  0  0
   41.9110   41.8520   31.8840 O   0  0  0  0  0  0  0  0  0  0  0  0
   40.2180   39.3330   31.9790 O   0  0  0  0  0  0  0  0  0  0  0  0
  1  3  1  0
  1  5  1  0
  2  6  1  0
  4  2  1  0
  5  2  1  0
  7  9  1  0
  7  8  1  0
  7  4  1  0
  8 10  1  0
  8  1  1  0
M  END
$$$$

     RDKit          3D

 20 21  0  0  0  0  0  0  0  0999 V2000
   43.5440   43.7970   32.4710 O   0  0  0  0  0  0  0  0  0  0  0  0
   40.1790   41.2580   31.6780 C   0  0  0  0  0  0  0  0  0  0  0  0
   41.7710   42.5120   33.2290 C   0  0  0  0  0  0  0  0  0  0  0  0
   41.5040   41.2380   32.5910 C   0  0  0  0  0  0  0  0  0  0  0  0
   40.6600   39.6310   30.0750 C   0  0  0  0  0  0  0  0  0  0  0  0
   41.6310   40.3290   29.7700 O   0  0  0  0  0  0  0  0  0  0  0  0
   39.4880   40.2950   30.5180 C   0  0  0  0  0  0  0  0  0  0  0  0
   41.8360   43.8230   32.6330 C   0  0  0  0  0  0  0  0  0  0  0  0
   42.2440   42.8220   34.7240 C   0  0  0  0  0  0  0  0  0  0  0  0
   40.8450   38.4070   30.0240 O   0  0  0  0  0  0  0  0  0  0  0  0
   41.2120   44.5180   32.1300 O   0  0  0  0  0  0  0  0  0  0  0  0
   36.3450   39.2450   32.2760 C   0  0  0  0  0  0  0  0  0  0  0  0
   36.8100   38.1210   31.7500 C   0  0  0  0  0  0  0  0  0  0  0  0
   38.1010   38.3600   31.1710 C   0  0  0  0  0  0  0  0  0  0  0  0
   35.0260   35.9950   31.5540 C   0  0  0  0  0  0  0  0  0  0  0  0
   38.3270   39.6350   31.2730 C   0  0  0  0  0  0  0  0  0  0  0  0
   37.1880   40.1280   31.7880 C   0  0  0  0  0  0  0  0  0  0  0  0
   36.1690   36.8080   31.8290 C   0  0  0  0  0  0  0  0  0  0  0  0
   40.2350   42.4460   31.0470 O   0  0  0  0  0  0  0  0  0  0  0  0
   35.0570   36.6390   32.8530 C   0  0  0  0  0  0  0  0  0  0  0  0
  1  8  1  0
  2 19  1  0
  2  4  1  0
  3  9  1  0
  4  3  1  0
  6  5  2  0
  7  5  1  0
  7 16  1  0
  7  2  1  0
  8  3  1  0
 10  5  1  0
 11  8  2  0
 13 18  1  0
 13 12  1  0
 14 16  1  0
 14 13  1  0
 15 18  1  0
 15 20  1  0
 16 17  2  0
 17 12  1  0
 18 20  1  0
M  END
$$$$

     RDKit          3D

 13 13  0  0  0  0  0  0  0  0999 V2000
   38.5310   40.9700   33.5270 O   0  0  0  0  0  0  0  0  0  0  0  0
   39.6560   39.5190   31.3840 C   0  0  0  0  0  0  0  0  0  0  0  0
   37.7950   39.7190   33.4290 C   0  0  0  0  0  0  0  0  0  0  0  0
   37.6070   39.2990   32.0880 C   0  0  0  0  0  0  0  0  0  0  0  0
   38.3070   38.9060   31.5000 O   0  0  0  0  0  0  0  0  0  0  0  0
   36.4720   39.4450   32.8460 C   0  0  0  0  0  0  0  0  0  0  0  0
   39.2760   39.3990   29.0150 O   0  0  0  0  0  0  0  0  0  0  0  0
   35.7920   40.2710   32.2740 O   0  0  0  0  0  0  0  0  0  0  0  0
   40.0310   39.0220   30.0390 C   0  0  0  0  0  0  0  0  0  0  0  0
   40.6880   37.9980   29.9820 O   0  0  0  0  0  0  0  0  0  0  0  0
   35.3760   39.7280   31.0230 O   0  0  0  0  0  0  0  0  0  0  0  0
   40.5210   40.5830   32.0180 C   0  0  0  0  0  0  0  0  0  0  0  0
   38.3320   38.8150   34.3570 O   0  0  0  0  0  0  0  0  0  0  0  0
  2  5  1  0
  2 12  1  0
  3  1  1  0
  3 13  1  0
  4  5  1  0
  4  6  1  0
  4  3  1  0
  6  8  1  0
  6  3  1  0
  7  9  2  0
  9  2  1  0
 10  9  1  0
 11  8  1  0
M  END
$$$$

     RDKit          3D

 11 11  0  0  0  0  0  0  0  0999 V2000
   38.3390   42.9620   29.7860 O   0  0  0  0  0  0  0  0  0  0  0  0
   42.3600   40.9740   32.1390 N   0  0  0  0  0  0  0  0  0  0  0  0
   43.5670   41.7300   31.4310 C   0  0  0  0  0  0  0  0  0  0  0  0
   40.4620   41.4200   30.8050 O   0  0  0  0  0  0  0  0  0  0  0  0
   40.3670   42.8480   31.0260 C   0  0  0  0  0  0  0  0  0  0  0  0
   39.1650   43.6160   30.4900 C   0  0  0  0  0  0  0  0  0  0  0  0
   41.6310   41.8830   33.2520 S   0  0  0  0  0  0  0  0  0  0  0  0
   41.5910   40.5200   30.9370 C   0  0  0  0  0  0  0  0  0  0  0  0
   39.2550   44.8770   30.3490 O   0  0  0  0  0  0  0  0  0  0  0  0
   40.2220   42.5820   32.1010 C   0  0  0  0  0  0  0  0  0  0  0  0
   44.1740   40.4980   31.1380 O   0  0  0  0  0  0  0  0  0  0  0  0
  1  6  2  0
  2  7  1  0
  3  2  1  0
  4  8  1  0
  4  5  1  0
  5  6  1  0
  5 10  1  0
  8  2  1  0
  9  6  1  0
 10  7  1  0
 11  3  1  0
M  END
$$$$

     RDKit          3D

 11 11  0  0  0  0  0  0  0  0999 V2000
   39.0660   41.3510   29.4620 C   0  0  0  0  0  0  0  0  0  0  0  0
   42.4080   41.4650   30.0500 C   0  0  0  0  0  0  0  0  0  0  0  0
   36.8860   41.0430   28.4830 O   0  0  0  0  0  0  0  0  0  0  0  0
   37.7410   40.7030   29.2860 C   0  0  0  0  0  0  0  0  0  0  0  0
   42.0480   41.2410   31.8990 C   0  0  0  0  0  0  0  0  0  0  0  0
   41.2710   41.5560   30.6990 C   0  0  0  0  0  0  0  0  0  0  0  0
   37.4480   39.6830   29.9170 O   0  0  0  0  0  0  0  0  0  0  0  0
   41.6390   42.7590   30.1070 O   0  0  0  0  0  0  0  0  0  0  0  0
   39.3530   40.2930   31.5070 O   0  0  0  0  0  0  0  0  0  0  0  0
   40.0160   40.6910   30.3970 C   0  0  0  0  0  0  0  0  0  0  0  0
   39.6270   41.3180   28.1290 O   0  0  0  0  0  0  0  0  0  0  0  0
  1 11  1  0
  1 10  1  0
  2  8  1  0
  2  6  1  0
  3  4  2  0
  4  1  1  0
  4  7  1  0
  6  5  1  0
  8  6  1  0
 10  6  1  0
 10  9  1  0
M  END
$$$$

     RDKit          3D

  3  2  0  0  0  0  0  0  0  0999 V2000
   42.4300   41.6170   32.3860 O   0  0  0  0  0  0  0  0  0  0  0  0
   40.8150   40.8610   30.6810 C   0  0  0  0  0  0  0  0  0  0  0  0
   41.0890   41.0340   32.1820 C   0  0  0  0  0  0  0  0  0  0  0  0
  2  3  1  0
  3  1  1  0
M  END
$$$$

     RDKit          3D

 22 26  0  0  0  0  0  0  0  0999 V2000
   38.5770   39.4680   32.7670 C   0  0  0  0  0  0  0  0  0  0  0  0
   35.5550   34.5560   34.6860 O   0  0  0  0  0  0  0  0  0  0  0  0
   38.0110   38.1480   33.2920 N   0  0  0  0  0  0  0  0  0  0  0  0
   37.8770   31.8040   35.4310 C   0  0  0  0  0  0  0  0  0  0  0  0
   41.2220   40.7260   30.3250 C   0  0  0  0  0  0  0  0  0  0  0  0
   39.5200   42.0230   31.9480 C   0  0  0  0  0  0  0  0  0  0  0  0
   40.0750   38.4510   31.0210 C   0  0  0  0  0  0  0  0  0  0  0  0
   39.0070   33.7160   35.7220 C   0  0  0  0  0  0  0  0  0  0  0  0
   36.6980   32.4750   35.0040 C   0  0  0  0  0  0  0  0  0  0  0  0
   39.3590   39.6090   31.6050 C   0  0  0  0  0  0  0  0  0  0  0  0
   38.8380   32.4520   36.1420 C   0  0  0  0  0  0  0  0  0  0  0  0
   38.1310   40.6270   33.4440 C   0  0  0  0  0  0  0  0  0  0  0  0
   38.0720   36.7070   33.7430 C   0  0  0  0  0  0  0  0  0  0  0  0
   38.0360   34.5290   35.1180 C   0  0  0  0  0  0  0  0  0  0  0  0
   40.0270   40.8810   31.2740 C   0  0  0  0  0  0  0  0  0  0  0  0
   38.1190   35.9900   35.1130 C   0  0  0  0  0  0  0  0  0  0  0  0
   36.8230   33.9170   34.4690 C   0  0  0  0  0  0  0  0  0  0  0  0
   41.5670   38.9410   30.0780 S   0  0  0  0  0  0  0  0  0  0  0  0
   36.9090   36.0470   32.9390 C   0  0  0  0  0  0  0  0  0  0  0  0
   38.2440   41.8420   32.6390 C   0  0  0  0  0  0  0  0  0  0  0  0
   36.2020   34.8920   33.4770 C   0  0  0  0  0  0  0  0  0  0  0  0
   37.3650   35.7750   31.5950 O   0  0  0  0  0  0  0  0  0  0  0  0
  1  3  1  0
  1 12  1  0
  4 11  1  0
  5 15  2  0
  6 20  1  0
  7 10  2  0
  8 11  1  0
  9  4  1  0
 10  1  1  0
 13  3  1  0
 13 16  1  0
 14 16  1  0
 14  8  1  0
 15 10  1  0
 15  6  1  0
 17  2  1  0
 17  9  1  0
 17 14  1  0
 18  5  1  0
 18  7  1  0
 19 22  1  0
 19 21  1  0
 19 13  1  0
 20 12  1  0
 21 17  1  0
 21  2  1  0
M  END
$$$$

     RDKit          3D

 15 17  0  0  0  0  0  0  0  0999 V2000
   39.4190   40.0810   31.1650 C   0  0  0  0  0  0  0  0  0  0  0  0
   41.3140   43.9230   27.4660 C   0  0  0  0  0  0  0  0  0  0  0  0
   38.3250   40.2910   30.7090 C   0  0  0  0  0  0  0  0  0  0  0  0
   38.5810   43.7760   27.6200 C   0  0  0  0  0  0  0  0  0  0  0  0
   41.4210   40.8920   31.1720 C   0  0  0  0  0  0  0  0  0  0  0  0
   39.4030   40.0730   30.0490 C   0  0  0  0  0  0  0  0  0  0  0  0
   41.8840   40.0680   30.0100 C   0  0  0  0  0  0  0  0  0  0  0  0
   41.0890   42.2700   29.1470 O   0  0  0  0  0  0  0  0  0  0  0  0
   40.6220   42.0130   30.5330 C   0  0  0  0  0  0  0  0  0  0  0  0
   39.3950   43.5670   28.7540 O   0  0  0  0  0  0  0  0  0  0  0  0
   40.6430   43.1900   28.4640 C   0  0  0  0  0  0  0  0  0  0  0  0
   40.5880   40.0250   32.0340 C   0  0  0  0  0  0  0  0  0  0  0  0
   40.1180   42.2480   31.8040 O   0  0  0  0  0  0  0  0  0  0  0  0
   40.5570   39.8030   29.2380 C   0  0  0  0  0  0  0  0  0  0  0  0
   40.8020   43.3240   31.2310 C   0  0  0  0  0  0  0  0  0  0  0  0
  1 12  1  0
  3  1  1  0
  4 10  1  0
  5  7  1  0
  5 12  1  0
  6  3  1  0
  6  1  2  0
  9  8  1  0
  9  5  1  0
  9 15  1  0
  9 13  1  0
 11  2  1  0
 11 10  1  0
 11  8  1  0
 14  7  1  0
 14  6  1  0
 15 13  1  0
M  END
$$$$

     RDKit          3D

 17 17  0  0  0  0  0  0  0  0999 V2000
   39.6370   41.0310   35.3230 C   0  0  0  0  0  0  0  0  0  0  0  0
   37.2770   40.0360   34.3370 O   0  0  0  0  0  0  0  0  0  0  0  0
   38.4900   40.5950   30.4740 C   0  0  0  0  0  0  0  0  0  0  0  0
   38.0740   37.5660   31.9440 C   0  0  0  0  0  0  0  0  0  0  0  0
   37.6340   37.7670   33.3450 C   0  0  0  0  0  0  0  0  0  0  0  0
   36.2140   37.2320   33.3870 C   0  0  0  0  0  0  0  0  0  0  0  0
   38.9640   38.4990   31.4720 O   0  0  0  0  0  0  0  0  0  0  0  0
   38.6190   39.8640   31.8090 C   0  0  0  0  0  0  0  0  0  0  0  0
   35.0990   35.5670   31.8610 C   0  0  0  0  0  0  0  0  0  0  0  0
   40.3590   40.8340   36.7110 C   0  0  0  0  0  0  0  0  0  0  0  0
   39.2140   42.3080   34.6440 O   0  0  0  0  0  0  0  0  0  0  0  0
   38.7670   38.0770   34.2000 O   0  0  0  0  0  0  0  0  0  0  0  0
   38.1580   40.0620   33.2300 C   0  0  0  0  0  0  0  0  0  0  0  0
   39.4140   39.1880   33.7340 C   0  0  0  0  0  0  0  0  0  0  0  0
   37.1070   34.8710   33.3390 C   0  0  0  0  0  0  0  0  0  0  0  0
   35.9640   36.0180   32.9980 C   0  0  0  0  0  0  0  0  0  0  0  0
   40.4090   40.1650   34.3190 C   0  0  0  0  0  0  0  0  0  0  0  0
  1 10  1  0
  4  5  1  0
  5  6  1  0
  5 12  1  0
  7  8  1  0
  7  4  1  0
  8  3  1  0
  8 13  1  0
  9 16  1  0
 11  1  1  0
 13 14  1  0
 13  2  1  0
 14 12  1  0
 14 17  1  0
 16 15  1  0
 16  6  1  0
 17  1  1  0
M  END
$$$$

     RDKit          3D

 19 19  0  0  0  0  0  0  0  0999 V2000
   38.4510   35.9740   35.7620 C   0  0  0  0  0  0  0  0  0  0  0  0
   37.0460   39.6920   31.7380 C   0  0  0  0  0  0  0  0  0  0  0  0
   37.0070   42.0560   30.6990 C   0  0  0  0  0  0  0  0  0  0  0  0
   38.7180   37.3650   35.3570 C   0  0  0  0  0  0  0  0  0  0  0  0
   37.7750   39.0730   34.1070 C   0  0  0  0  0  0  0  0  0  0  0  0
   37.9500   34.4470   37.6690 O   0  0  0  0  0  0  0  0  0  0  0  0
   38.4590   40.1540   31.6250 O   0  0  0  0  0  0  0  0  0  0  0  0
   37.7310   39.9800   34.9750 O   0  0  0  0  0  0  0  0  0  0  0  0
   34.2740   39.1720   30.9720 O   0  0  0  0  0  0  0  0  0  0  0  0
   38.8440   38.2030   34.1300 C   0  0  0  0  0  0  0  0  0  0  0  0
   36.6370   39.1970   33.0930 C   0  0  0  0  0  0  0  0  0  0  0  0
   34.9150   40.4350   30.5850 C   0  0  0  0  0  0  0  0  0  0  0  0
   38.5270   35.6390   37.1340 C   0  0  0  0  0  0  0  0  0  0  0  0
   40.1770   38.3600   36.9440 O   0  0  0  0  0  0  0  0  0  0  0  0
   36.3800   38.4610   31.9090 N   0  0  0  0  0  0  0  0  0  0  0  0
   34.5770   41.6010   29.8090 O   0  0  0  0  0  0  0  0  0  0  0  0
   36.2630   40.7190   30.9520 C   0  0  0  0  0  0  0  0  0  0  0  0
   40.0580   38.5830   33.8960 O   0  0  0  0  0  0  0  0  0  0  0  0
   38.9840   38.1370   36.5760 C   0  0  0  0  0  0  0  0  0  0  0  0
  1 13  2  3
  2  7  1  0
  2 15  1  0
  2 11  1  0
  4  1  1  0
  4 19  1  0
  5 10  1  0
  5  8  2  0
 10 18  1  0
 10  4  1  0
 11  5  1  0
 12 17  1  0
 12  9  1  0
 13  6  1  0
 15 11  1  0
 16 12  2  0
 17  3  1  0
 17  2  1  0
 19 14  2  0
M  END
$$$$

     RDKit          3D

 10 10  0  0  0  0  0  0  0  0999 V2000
   36.6970   40.5820   32.0320 C   0  0  0  0  0  0  0  0  0  0  0  0
   38.0300   38.7750   30.9100 C   0  0  0  0  0  0  0  0  0  0  0  0
   37.9760   40.0920   31.4150 C   0  0  0  0  0  0  0  0  0  0  0  0
   35.8820   38.2690   32.9010 C   0  0  0  0  0  0  0  0  0  0  0  0
   39.4460   38.4930   30.4960 C   0  0  0  0  0  0  0  0  0  0  0  0
   40.3600   39.3070   30.2300 C   0  0  0  0  0  0  0  0  0  0  0  0
   40.7550   39.6290   29.0210 O   0  0  0  0  0  0  0  0  0  0  0  0
   35.7110   39.7530   32.6740 C   0  0  0  0  0  0  0  0  0  0  0  0
   35.0680   38.7090   31.8500 N   0  0  0  0  0  0  0  0  0  0  0  0
   38.7200   41.1820   30.4040 Cl  0  0  0  0  0  0  0  0  0  0  0  0
  2  3  1  0
  3 10  1  0
  3  1  1  0
  5  2  1  0
  6  5  1  0
  7  6  1  0
  8  1  1  0
  8  4  1  0
  9  8  1  0
  9  4  1  0
M  END
$$$$

     RDKit          3D

 13 13  0  0  0  0  0  0  0  0999 V2000
   37.9900   41.4450   32.4440 C   0  0  0  0  0  0  0  0  0  0  0  0
   37.9890   40.0530   31.9410 C   0  0  0  0  0  0  0  0  0  0  0  0
   37.2040   43.0670   30.6980 O   0  0  0  0  0  0  0  0  0  0  0  0
   37.4500   39.2510   32.5730 C   0  0  0  0  0  0  0  0  0  0  0  0
   36.7560   38.6040   33.2700 C   0  0  0  0  0  0  0  0  0  0  0  0
   38.9100   39.4480   31.0520 C   0  0  0  0  0  0  0  0  0  0  0  0
   38.7440   37.0780   32.1210 C   0  0  0  0  0  0  0  0  0  0  0  0
   39.4670   42.1790   30.2970 O   0  0  0  0  0  0  0  0  0  0  0  0
   37.4480   36.3730   32.3720 C   0  0  0  0  0  0  0  0  0  0  0  0
   36.7270   37.1560   33.4710 C   0  0  0  0  0  0  0  0  0  0  0  0
   39.1110   43.7480   32.1620 O   0  0  0  0  0  0  0  0  0  0  0  0
   38.5370   42.7040   31.3660 P   0  0  0  0  0  0  0  0  0  0  0  0
   38.7460   37.9580   30.9140 C   0  0  0  0  0  0  0  0  0  0  0  0
  2  1  1  0
  2  4  2  0
  3 12  1  0
  4  5  2  0
  5 10  1  0
  6  2  1  0
  7  9  1  0
  8 12  2  0
  9 10  1  0
 12 11  1  0
 12  1  1  0
 13  6  1  0
 13  7  1  0
M  END
$$$$

     RDKit          3D

 18 18  0  0  0  0  0  0  0  0999 V2000
   41.2790   38.4750   29.9960 O   0  0  0  0  0  0  0  0  0  0  0  0
   40.2760   38.8640   32.1940 C   0  0  0  0  0  0  0  0  0  0  0  0
   39.9040   38.9430   34.4470 N   0  0  0  0  0  0  0  0  0  0  0  0
   36.9290   35.8730   36.4990 C   0  0  0  0  0  0  0  0  0  0  0  0
   40.2240   36.6710   31.5990 O   0  0  0  0  0  0  0  0  0  0  0  0
   41.3980   40.5160   30.8510 O   0  0  0  0  0  0  0  0  0  0  0  0
   41.0270   39.2760   30.9580 C   0  0  0  0  0  0  0  0  0  0  0  0
   40.6820   40.9270   33.4720 C   0  0  0  0  0  0  0  0  0  0  0  0
   40.2390   39.5540   33.3700 C   0  0  0  0  0  0  0  0  0  0  0  0
   37.1450   36.4220   35.3400 N   0  0  0  0  0  0  0  0  0  0  0  0
   38.5810   34.6480   35.0190 C   0  0  0  0  0  0  0  0  0  0  0  0
   38.9760   38.9660   35.4560 C   0  0  0  0  0  0  0  0  0  0  0  0
   37.9200   34.4740   36.5590 S   0  0  0  0  0  0  0  0  0  0  0  0
   39.6380   37.5180   32.2600 C   0  0  0  0  0  0  0  0  0  0  0  0
   37.8740   35.6570   34.4990 C   0  0  0  0  0  0  0  0  0  0  0  0
   38.5040   37.3140   32.9690 N   0  0  0  0  0  0  0  0  0  0  0  0
   35.8630   36.4440   37.2580 N   0  0  0  0  0  0  0  0  0  0  0  0
   37.7540   36.0930   33.0480 C   0  0  0  0  0  0  0  0  0  0  0  0
  1  7  2  0
  2  7  1  0
  2 14  1  0
  2  9  1  0
  3 12  1  0
  4 13  1  0
  4 17  1  0
  5 14  2  0
  6  7  1  0
  9  8  1  0
  9  3  1  0
 10  4  1  0
 11 13  1  0
 14 16  1  0
 15 18  1  0
 15 11  1  0
 15 10  1  0
 16 18  1  0
M  END
$$$$
