
     RDKit          3D

  7  6  0  0  0  0  0  0  0  0999 V2000
   40.0070   40.3110   26.3300 C   0  0  0  0  0  0  0  0  0  0  0  0
   38.1850   42.1900   28.0380 C   0  0  0  0  0  0  0  0  0  0  0  0
   41.0750   39.6100   26.4940 N   0  0  0  0  0  0  0  0  0  0  0  0
   38.6120   39.9020   26.8590 C   0  0  0  0  0  0  0  0  0  0  0  0
   37.6730   41.3120   26.6600 S   0  0  0  0  0  0  0  0  0  0  0  0
   42.4090   40.0010   25.9530 C   0  0  0  0  0  0  0  0  0  0  0  0
   40.7600   38.1480   26.4470 C   0  0  0  0  0  0  0  0  0  0  0  0
  1  3  1  0
  1  4  1  0
  5  4  1  0
  5  2  1  0
  6  3  1  0
  7  3  1  0
M  END
$$$$

     RDKit          3D

 23 23  0  0  0  0  0  0  0  0999 V2000
   31.8770   36.0140   35.8220 C   0  0  0  0  0  0  0  0  0  0  0  0
   38.6780   36.0600   30.6320 C   0  0  0  0  0  0  0  0  0  0  0  0
   33.8750   34.7520   32.5460 C   0  0  0  0  0  0  0  0  0  0  0  0
   38.2320   35.1030   31.6120 C   0  0  0  0  0  0  0  0  0  0  0  0
   37.8930   38.7010   28.5360 C   0  0  0  0  0  0  0  0  0  0  0  0
   31.0090   34.0440   34.5620 O   0  0  0  0  0  0  0  0  0  0  0  0
   37.0150   39.3090   29.4890 N   0  0  0  0  0  0  0  0  0  0  0  0
   36.2040   35.0760   33.2620 C   0  0  0  0  0  0  0  0  0  0  0  0
   39.7360   41.6030   26.7980 C   0  0  0  0  0  0  0  0  0  0  0  0
   36.9080   35.1390   31.9520 C   0  0  0  0  0  0  0  0  0  0  0  0
   36.3590   37.3900   32.3040 O   0  0  0  0  0  0  0  0  0  0  0  0
   35.9330   36.0600   32.5810 C   0  0  0  0  0  0  0  0  0  0  0  0
   39.1110   37.9650   28.9970 C   0  0  0  0  0  0  0  0  0  0  0  0
   38.2140   39.6980   27.4630 C   0  0  0  0  0  0  0  0  0  0  0  0
   38.8470   43.0420   28.7700 C   0  0  0  0  0  0  0  0  0  0  0  0
   39.0240   40.4850   27.3590 O   0  0  0  0  0  0  0  0  0  0  0  0
   31.8590   35.0700   34.5590 C   0  0  0  0  0  0  0  0  0  0  0  0
   38.8640   37.2940   30.3530 C   0  0  0  0  0  0  0  0  0  0  0  0
   34.4550   36.1000   32.2130 C   0  0  0  0  0  0  0  0  0  0  0  0
   33.1890   34.9580   33.8410 C   0  0  0  0  0  0  0  0  0  0  0  0
   40.1650   41.6070   25.6460 O   0  0  0  0  0  0  0  0  0  0  0  0
   39.9810   42.7670   27.7840 C   0  0  0  0  0  0  0  0  0  0  0  0
   31.1780   35.6320   33.5160 O   0  0  0  0  0  0  0  0  0  0  0  0
  2  4  1  0
  3 20  1  0
  5 13  1  0
  5  7  1  0
  9 16  1  0
  9 22  1  0
 10  4  1  0
 10 12  1  0
 10  8  1  0
 12 11  1  0
 12  8  1  0
 13 18  1  0
 14  5  1  0
 16 14  1  0
 17  6  1  0
 17  1  1  0
 18  2  2  3
 19  3  1  0
 19 12  1  0
 20 17  1  0
 21  9  2  0
 22 15  1  0
 23 17  1  0
M  END
$$$$

     RDKit          3D

 13 12  0  0  0  0  0  0  0  0999 V2000
   38.6170   37.7260   31.1310 C   0  0  0  0  0  0  0  0  0  0  0  0
   39.9950   41.3700   30.6560 C   0  0  0  0  0  0  0  0  0  0  0  0
   35.0250   34.6540   32.9840 C   0  0  0  0  0  0  0  0  0  0  0  0
   39.9120   39.8480   30.7960 C   0  0  0  0  0  0  0  0  0  0  0  0
   36.9420   35.7930   31.7530 C   0  0  0  0  0  0  0  0  0  0  0  0
   37.3540   37.5440   33.2190 N   0  0  0  0  0  0  0  0  0  0  0  0
   37.6080   37.0040   32.0740 C   0  0  0  0  0  0  0  0  0  0  0  0
   35.9860   35.2790   32.7290 C   0  0  0  0  0  0  0  0  0  0  0  0
   36.6510   35.3250   30.3640 C   0  0  0  0  0  0  0  0  0  0  0  0
   40.4600   42.0260   31.5040 O   0  0  0  0  0  0  0  0  0  0  0  0
   39.6780   39.2790   29.5100 N   0  0  0  0  0  0  0  0  0  0  0  0
   39.7190   42.0210   29.5780 O   0  0  0  0  0  0  0  0  0  0  0  0
   38.9610   39.0400   31.5790 N   0  0  0  0  0  0  0  0  0  0  0  0
  1 13  1  0
  1  7  1  0
  2  4  1  0
  2 10  1  0
  4 11  1  0
  4 13  1  0
  5  9  1  0
  5  7  1  0
  5  8  1  0
  7  6  2  0
  8  3  2  0
 12  2  2  0
M  END
$$$$

     RDKit          3D

 26 26  0  0  0  0  0  0  0  0999 V2000
   41.3210   39.8830   29.2500 C   0  0  0  0  0  0  0  0  0  0  0  0
   40.2800   41.0360   29.4890 C   0  0  0  0  0  0  0  0  0  0  0  0
   35.0050   35.4080   31.6900 C   0  0  0  0  0  0  0  0  0  0  0  0
   40.7930   44.0850   27.0460 O   0  0  0  0  0  0  0  0  0  0  0  0
   41.9280   43.7310   29.2470 O   0  0  0  0  0  0  0  0  0  0  0  0
   34.0920   36.5530   31.3700 C   0  0  0  0  0  0  0  0  0  0  0  0
   34.6060   34.2120   32.4290 C   0  0  0  0  0  0  0  0  0  0  0  0
   38.6920   39.5460   30.8070 C   0  0  0  0  0  0  0  0  0  0  0  0
   40.4360   41.9040   28.2060 C   0  0  0  0  0  0  0  0  0  0  0  0
   36.5030   36.5870   30.1760 C   0  0  0  0  0  0  0  0  0  0  0  0
   31.2760   33.5570   33.6030 C   0  0  0  0  0  0  0  0  0  0  0  0
   30.6330   33.9640   36.0440 C   0  0  0  0  0  0  0  0  0  0  0  0
   40.5730   40.8270   27.2340 O   0  0  0  0  0  0  0  0  0  0  0  0
   38.3920   38.2390   30.0080 C   0  0  0  0  0  0  0  0  0  0  0  0
   30.6970   33.2080   34.8590 C   0  0  0  0  0  0  0  0  0  0  0  0
   43.0460   43.2150   27.1680 O   0  0  0  0  0  0  0  0  0  0  0  0
   36.3710   35.4460   31.1490 C   0  0  0  0  0  0  0  0  0  0  0  0
   37.5010   39.8710   31.3350 O   0  0  0  0  0  0  0  0  0  0  0  0
   41.6050   40.0460   27.7760 C   0  0  0  0  0  0  0  0  0  0  0  0
   33.1860   33.7650   32.0430 C   0  0  0  0  0  0  0  0  0  0  0  0
   41.6310   43.1510   27.7520 S   0  0  0  0  0  0  0  0  0  0  0  0
   37.3560   37.5600   30.7570 N   0  0  0  0  0  0  0  0  0  0  0  0
   39.1690   40.6290   29.9760 N   0  0  0  0  0  0  0  0  0  0  0  0
   32.8040   31.9020   34.2800 N   0  0  0  0  0  0  0  0  0  0  0  0
   32.7130   33.2480   33.5820 C   0  0  0  0  0  0  0  0  0  0  0  0
   30.3850   33.5470   32.6070 O   0  0  0  0  0  0  0  0  0  0  0  0
  1  2  1  0
  2 23  1  0
  3  6  1  0
  3  7  1  0
  4 21  1  0
  8 18  1  0
  9 21  1  0
  9  2  1  0
 10 22  1  0
 10 17  1  0
 11 26  1  0
 11 15  1  0
 13 19  1  0
 13  9  1  0
 14 22  1  0
 14  8  1  0
 15 12  1  0
 16 21  1  0
 17  3  1  0
 19  1  1  0
 20  7  1  0
 20 25  1  0
 21  5  1  0
 23  8  1  0
 25 11  1  0
 25 24  1  0
M  END
$$$$

     RDKit          3D

 11 10  0  0  0  0  0  0  0  0999 V2000
   41.7700   40.8680   30.1040 C   0  0  0  0  0  0  0  0  0  0  0  0
   41.7420   40.1710   28.8130 C   0  0  0  0  0  0  0  0  0  0  0  0
   41.8930   42.1020   30.1710 O   0  0  0  0  0  0  0  0  0  0  0  0
   41.9960   40.0940   31.0380 O   0  0  0  0  0  0  0  0  0  0  0  0
   38.1580   41.9360   27.3240 C   0  0  0  0  0  0  0  0  0  0  0  0
   40.9760   39.0150   26.9430 C   0  0  0  0  0  0  0  0  0  0  0  0
   38.0990   40.7240   28.1530 C   0  0  0  0  0  0  0  0  0  0  0  0
   41.4350   39.2280   25.8740 O   0  0  0  0  0  0  0  0  0  0  0  0
   40.5350   37.6640   27.3130 O   0  0  0  0  0  0  0  0  0  0  0  0
   40.5510   40.3290   27.9220 C   0  0  0  0  0  0  0  0  0  0  0  0
   39.2410   39.9100   28.5440 C   0  0  0  0  0  0  0  0  0  0  0  0
  1  3  2  0
  1  4  1  0
  2  1  1  0
  5  7  1  0
  6  9  1  0
  6 10  1  0
  7 11  1  0
  8  6  2  0
 10 11  1  0
 10  2  1  0
M  END
$$$$

     RDKit          3D

 17 18  0  0  0  0  0  0  0  0999 V2000
   37.2520   37.8540   30.4950 N   0  0  0  0  0  0  0  0  0  0  0  0
   36.9140   35.5630   31.3290 C   0  0  0  0  0  0  0  0  0  0  0  0
   39.4760   38.1080   30.5430 C   0  0  0  0  0  0  0  0  0  0  0  0
   36.1970   36.8810   30.7840 C   0  0  0  0  0  0  0  0  0  0  0  0
   36.7470   38.4200   28.1670 O   0  0  0  0  0  0  0  0  0  0  0  0
   34.9800   37.6440   30.1220 C   0  0  0  0  0  0  0  0  0  0  0  0
   39.4510   40.1880   29.2730 C   0  0  0  0  0  0  0  0  0  0  0  0
   39.3360   38.7060   29.1910 C   0  0  0  0  0  0  0  0  0  0  0  0
   36.9210   40.2960   29.7560 C   0  0  0  0  0  0  0  0  0  0  0  0
   40.5020   40.6730   28.8870 O   0  0  0  0  0  0  0  0  0  0  0  0
   34.9190   36.5330   29.7320 O   0  0  0  0  0  0  0  0  0  0  0  0
   37.7250   36.3410   32.3300 C   0  0  0  0  0  0  0  0  0  0  0  0
   34.3760   38.7760   29.9080 O   0  0  0  0  0  0  0  0  0  0  0  0
   40.4640   38.6300   31.3480 O   0  0  0  0  0  0  0  0  0  0  0  0
   38.1750   40.9220   29.2260 C   0  0  0  0  0  0  0  0  0  0  0  0
   38.3560   37.4210   31.4190 C   0  0  0  0  0  0  0  0  0  0  0  0
   36.9850   38.8080   29.4960 C   0  0  0  0  0  0  0  0  0  0  0  0
  1  4  1  0
  1 16  1  0
  2 12  1  0
  3 14  1  0
  3 16  1  0
  4  6  1  0
  4  2  1  0
  5 17  2  0
  8  7  1  0
  8  3  1  0
 10  7  2  0
 11  6  2  0
 13  6  1  0
 15  7  1  0
 15  9  1  0
 16 12  1  0
 17  9  1  0
 17  1  1  0
M  END
$$$$

     RDKit          3D

  6  5  0  0  0  0  0  0  0  0999 V2000
   36.7890   40.2150   27.4780 F   0  0  0  0  0  0  0  0  0  0  0  0
   36.7450   38.5610   26.4190 O   0  0  0  0  0  0  0  0  0  0  0  0
   37.4070   39.2800   27.1350 C   0  0  0  0  0  0  0  0  0  0  0  0
   38.6770   39.3400   27.5520 C   0  0  0  0  0  0  0  0  0  0  0  0
   39.5640   38.2860   27.0650 C   0  0  0  0  0  0  0  0  0  0  0  0
   39.1540   40.1980   28.6930 C   0  0  0  0  0  0  0  0  0  0  0  0
  2  3  2  0
  3  1  1  0
  3  4  1  0
  4  6  1  0
  5  4  1  0
M  END
$$$$

     RDKit          3D

 11 11  0  0  0  0  0  0  0  0999 V2000
   39.4940   41.0240   28.2370 C   0  0  0  0  0  0  0  0  0  0  0  0
   35.8300   38.2200   28.9160 C   0  0  0  0  0  0  0  0  0  0  0  0
   34.5240   38.9850   28.9620 C   0  0  0  0  0  0  0  0  0  0  0  0
   40.0750   38.7240   27.6030 C   0  0  0  0  0  0  0  0  0  0  0  0
   40.3640   40.1020   28.0410 C   0  0  0  0  0  0  0  0  0  0  0  0
   37.8490   39.2770   28.0680 C   0  0  0  0  0  0  0  0  0  0  0  0
   38.1720   40.5800   28.1690 C   0  0  0  0  0  0  0  0  0  0  0  0
   38.8310   38.2880   27.7490 C   0  0  0  0  0  0  0  0  0  0  0  0
   35.9690   37.0170   29.2400 O   0  0  0  0  0  0  0  0  0  0  0  0
   36.6950   38.9120   28.2840 N   0  0  0  0  0  0  0  0  0  0  0  0
   39.6630   42.4250   28.1640 O   0  0  0  0  0  0  0  0  0  0  0  0
  2  3  1  0
  2  9  2  0
  4  8  2  0
  4  5  1  0
  5  1  2  0
  6  7  2  0
  6 10  1  0
  7  1  1  0
  8  6  1  0
 10  2  1  0
 11  1  1  0
M  END
$$$$

     RDKit          3D

  8  8  0  0  0  0  0  0  0  0999 V2000
   35.6940   37.4340   28.9420 C   0  0  0  0  0  0  0  0  0  0  0  0
   37.6490   40.4970   28.1690 C   0  0  0  0  0  0  0  0  0  0  0  0
   35.3160   40.2860   28.8730 O   0  0  0  0  0  0  0  0  0  0  0  0
   38.6870   39.4110   27.8180 C   0  0  0  0  0  0  0  0  0  0  0  0
   36.4130   39.8000   28.7710 C   0  0  0  0  0  0  0  0  0  0  0  0
   36.8890   38.3780   29.1450 C   0  0  0  0  0  0  0  0  0  0  0  0
   38.0990   38.0450   28.2120 C   0  0  0  0  0  0  0  0  0  0  0  0
   35.1120   37.1030   30.2580 O   0  0  0  0  0  0  0  0  0  0  0  0
  1  8  1  0
  2  5  1  0
  4  2  1  0
  4  7  1  0
  5  3  2  0
  5  6  1  0
  6  1  1  0
  7  6  1  0
M  END
$$$$

     RDKit          3D

 15 16  0  0  0  0  0  0  0  0999 V2000
   40.1570   37.5540   28.0390 C   0  0  0  0  0  0  0  0  0  0  0  0
   38.6750   35.6610   31.0400 C   0  0  0  0  0  0  0  0  0  0  0  0
   39.7050   36.5610   29.0030 N   0  0  0  0  0  0  0  0  0  0  0  0
   39.4760   37.8620   31.0180 C   0  0  0  0  0  0  0  0  0  0  0  0
   38.3600   34.4550   30.2340 C   0  0  0  0  0  0  0  0  0  0  0  0
   39.3010   36.7420   30.2570 C   0  0  0  0  0  0  0  0  0  0  0  0
   40.4000   38.9830   28.4950 C   0  0  0  0  0  0  0  0  0  0  0  0
   39.5100   41.0350   29.2440 N   0  0  0  0  0  0  0  0  0  0  0  0
   40.4860   37.1990   26.8950 O   0  0  0  0  0  0  0  0  0  0  0  0
   38.6430   41.8730   29.7710 C   0  0  0  0  0  0  0  0  0  0  0  0
   41.4240   39.6950   27.6030 C   0  0  0  0  0  0  0  0  0  0  0  0
   37.9540   33.4830   31.3070 C   0  0  0  0  0  0  0  0  0  0  0  0
   39.0940   42.5080   28.6260 C   0  0  0  0  0  0  0  0  0  0  0  0
   39.7670   39.6500   29.4570 C   0  0  0  0  0  0  0  0  0  0  0  0
   39.4790   39.2320   30.8440 C   0  0  0  0  0  0  0  0  0  0  0  0
  1  7  1  0
  1  3  1  0
  3  6  2  0
  5  2  1  0
  5 12  1  0
  6  4  1  0
  6  2  1  0
  7 11  1  0
  7 14  1  0
  8 10  1  0
  9  1  2  0
 13  8  1  0
 13 10  1  0
 14  8  1  0
 14 15  1  0
 15  4  1  0
M  END
$$$$

     RDKit          3D

 10 11  0  0  0  0  0  0  0  0999 V2000
   38.6620   39.7450   27.2140 C   0  0  0  0  0  0  0  0  0  0  0  0
   33.6100   38.5150   30.0960 O   0  0  0  0  0  0  0  0  0  0  0  0
   39.1040   37.4160   27.9980 C   0  0  0  0  0  0  0  0  0  0  0  0
   35.9250   38.7120   29.5630 C   0  0  0  0  0  0  0  0  0  0  0  0
   35.6410   37.6560   30.0780 O   0  0  0  0  0  0  0  0  0  0  0  0
   39.4560   38.5530   27.1930 C   0  0  0  0  0  0  0  0  0  0  0  0
   37.1620   38.7180   28.7760 C   0  0  0  0  0  0  0  0  0  0  0  0
   37.6060   39.8740   28.1530 C   0  0  0  0  0  0  0  0  0  0  0  0
   34.6950   38.4150   29.9210 C   0  0  0  0  0  0  0  0  0  0  0  0
   37.8910   37.4530   28.6660 C   0  0  0  0  0  0  0  0  0  0  0  0
  1  8  1  0
  3 10  2  0
  4  7  1  0
  4  9  1  0
  4  5  1  0
  6  1  2  0
  6  3  1  0
  8  7  2  0
  9  5  1  0
  9  2  2  0
 10  7  1  0
M  END
$$$$

     RDKit          3D

 10  9  0  0  0  0  0  0  0  0999 V2000
   40.1220   40.9330   28.2490 O   0  0  0  0  0  0  0  0  0  0  0  0
   38.6200   41.6710   26.4850 C   0  0  0  0  0  0  0  0  0  0  0  0
   39.3430   40.5930   24.4190 O   0  0  0  0  0  0  0  0  0  0  0  0
   37.1940   41.0050   24.8010 O   0  0  0  0  0  0  0  0  0  0  0  0
   39.0570   38.2190   28.0630 C   0  0  0  0  0  0  0  0  0  0  0  0
   38.3950   40.9830   25.1570 C   0  0  0  0  0  0  0  0  0  0  0  0
   39.0920   39.3330   27.0530 C   0  0  0  0  0  0  0  0  0  0  0  0
   40.2670   37.2970   27.8130 C   0  0  0  0  0  0  0  0  0  0  0  0
   38.9460   40.7380   27.5540 C   0  0  0  0  0  0  0  0  0  0  0  0
   37.9550   41.0880   28.4290 O   0  0  0  0  0  0  0  0  0  0  0  0
  2  9  1  0
  3  6  2  0
  4  6  1  0
  6  2  1  0
  7  9  1  0
  7  5  1  0
  8  5  1  0
  9  1  1  0
  9 10  1  0
M  END
$$$$

     RDKit          3D

  7  7  0  0  0  0  0  0  0  0999 V2000
   36.7450   39.6420   27.0210 C   0  0  0  0  0  0  0  0  0  0  0  0
   37.9440   40.3130   26.6860 C   0  0  0  0  0  0  0  0  0  0  0  0
   39.2510   40.6870   26.3750 O   0  0  0  0  0  0  0  0  0  0  0  0
   37.5470   38.9110   26.3010 C   0  0  0  0  0  0  0  0  0  0  0  0
   34.6680   38.8820   26.2380 O   0  0  0  0  0  0  0  0  0  0  0  0
   38.5670   38.1320   26.4270 O   0  0  0  0  0  0  0  0  0  0  0  0
   35.2990   39.7120   27.0640 C   0  0  0  0  0  0  0  0  0  0  0  0
  1  7  1  0
  2  3  1  0
  2  1  1  0
  4  6  1  0
  4  2  1  0
  4  1  1  0
  5  7  1  0
M  END
$$$$

     RDKit          3D

  4  3  0  0  0  0  0  0  0  0999 V2000
   36.1960   37.3730   25.8430 O   0  0  0  0  0  0  0  0  0  0  0  0
   33.9980   37.5880   25.6220 C   0  0  0  0  0  0  0  0  0  0  0  0
   35.1120   37.9560   26.1330 C   0  0  0  0  0  0  0  0  0  0  0  0
   35.1250   39.3870   26.5800 C   0  0  0  0  0  0  0  0  0  0  0  0
  1  3  2  0
  2  3  1  0
  3  4  1  0
M  END
$$$$

     RDKit          3D

  8  7  0  0  0  0  0  0  0  0999 V2000
   39.8820   40.6230   26.3300 C   0  0  0  0  0  0  0  0  0  0  0  0
   38.6600   39.5730   28.2270 C   0  0  0  0  0  0  0  0  0  0  0  0
   38.0940   38.3070   27.9170 O   0  0  0  0  0  0  0  0  0  0  0  0
   37.3430   40.9130   26.2680 C   0  0  0  0  0  0  0  0  0  0  0  0
   40.6750   39.8920   26.7590 O   0  0  0  0  0  0  0  0  0  0  0  0
   39.7090   41.3020   24.9050 C   0  0  0  0  0  0  0  0  0  0  0  0
   38.5810   40.5660   27.0840 C   0  0  0  0  0  0  0  0  0  0  0  0
   37.0420   42.3560   26.6450 C   0  0  0  0  0  0  0  0  0  0  0  0
  1  5  2  0
  1  7  1  0
  3  2  1  0
  4  8  1  0
  6  1  1  0
  7  4  1  0
  7  2  1  0
M  END
$$$$

     RDKit          3D

 13 14  0  0  0  0  0  0  0  0999 V2000
   40.0590   35.1650   33.5040 O   0  0  0  0  0  0  0  0  0  0  0  0
   35.7870   36.0600   32.1260 C   0  0  0  0  0  0  0  0  0  0  0  0
   37.2670   37.9420   31.7840 C   0  0  0  0  0  0  0  0  0  0  0  0
   36.8410   35.3440   32.6000 N   0  0  0  0  0  0  0  0  0  0  0  0
   38.1300   35.7700   32.3670 C   0  0  0  0  0  0  0  0  0  0  0  0
   33.8490   37.1160   30.5580 C   0  0  0  0  0  0  0  0  0  0  0  0
   38.9190   33.3020   32.5130 C   0  0  0  0  0  0  0  0  0  0  0  0
   33.4660   36.0970   31.5410 C   0  0  0  0  0  0  0  0  0  0  0  0
   34.3680   35.5960   32.5330 C   0  0  0  0  0  0  0  0  0  0  0  0
   39.1420   34.8150   32.7580 C   0  0  0  0  0  0  0  0  0  0  0  0
   36.0190   37.2900   31.5600 C   0  0  0  0  0  0  0  0  0  0  0  0
   38.3730   37.1470   31.9460 C   0  0  0  0  0  0  0  0  0  0  0  0
   34.9190   37.6530   30.8690 N   0  0  0  0  0  0  0  0  0  0  0  0
  2  9  1  0
  2  4  1  0
  3 12  2  0
  5  4  2  0
  5 10  1  0
  6 13  1  0
  6  8  1  0
  7 10  1  0
  8  9  1  0
 10  1  2  0
 11  3  1  0
 11  2  2  0
 12  5  1  0
 13 11  1  0
M  END
$$$$

     RDKit          3D

 21 22  0  0  0  0  0  0  0  0999 V2000
   32.0880   35.8710   33.8160 C   0  0  0  0  0  0  0  0  0  0  0  0
   38.6510   37.3710   29.9750 C   0  0  0  0  0  0  0  0  0  0  0  0
   38.5130   42.2560   28.4580 C   0  0  0  0  0  0  0  0  0  0  0  0
   38.3890   40.0280   29.5060 C   0  0  0  0  0  0  0  0  0  0  0  0
   37.9220   41.0890   28.5680 N   0  0  0  0  0  0  0  0  0  0  0  0
   37.9010   34.8880   33.3670 O   0  0  0  0  0  0  0  0  0  0  0  0
   37.0400   38.7440   31.0530 C   0  0  0  0  0  0  0  0  0  0  0  0
   39.3210   42.7820   29.3490 O   0  0  0  0  0  0  0  0  0  0  0  0
   35.8810   35.5830   32.3530 N   0  0  0  0  0  0  0  0  0  0  0  0
   38.7230   38.6170   29.0210 C   0  0  0  0  0  0  0  0  0  0  0  0
   37.2660   40.0210   30.5840 C   0  0  0  0  0  0  0  0  0  0  0  0
   38.1770   43.2140   27.3340 C   0  0  0  0  0  0  0  0  0  0  0  0
   35.3300   34.2650   32.6950 C   0  0  0  0  0  0  0  0  0  0  0  0
   32.3350   35.1760   31.4250 C   0  0  0  0  0  0  0  0  0  0  0  0
   33.8840   34.2100   33.1740 C   0  0  0  0  0  0  0  0  0  0  0  0
   38.1560   37.7870   31.3720 C   0  0  0  0  0  0  0  0  0  0  0  0
   37.6010   37.0770   32.5630 N   0  0  0  0  0  0  0  0  0  0  0  0
   38.5670   35.1880   31.8960 N   0  0  0  0  0  0  0  0  0  0  0  0
   37.3380   35.7270   32.4040 C   0  0  0  0  0  0  0  0  0  0  0  0
   33.0440   35.3110   32.7530 C   0  0  0  0  0  0  0  0  0  0  0  0
   39.4510   43.7240   26.6990 C   0  0  0  0  0  0  0  0  0  0  0  0
  2 16  1  0
  3  5  1  0
  3  8  2  0
  4  5  1  0
  4 11  1  0
  7 16  1  0
  9 13  1  0
 10  4  1  0
 10  2  1  0
 11  7  1  0
 12  3  1  0
 13 15  1  0
 14 20  1  0
 16 17  1  0
 18 19  1  0
 18  6  1  0
 19  9  1  0
 19 17  1  0
 19  6  1  0
 20 15  1  0
 20  1  1  0
 21 12  1  0
M  END
$$$$

     RDKit          3D

 18 17  0  0  0  0  0  0  0  0999 V2000
   41.4440   41.6470   32.2960 C   0  0  0  0  0  0  0  0  0  0  0  0
   40.6130   40.5080   32.3310 O   0  0  0  0  0  0  0  0  0  0  0  0
   37.5610   35.6610   32.0480 C   0  0  0  0  0  0  0  0  0  0  0  0
   37.4760   38.0560   31.6170 C   0  0  0  0  0  0  0  0  0  0  0  0
   38.7610   39.1890   31.3280 C   0  0  0  0  0  0  0  0  0  0  0  0
   39.9360   40.3190   31.2480 C   0  0  0  0  0  0  0  0  0  0  0  0
   36.7890   32.6270   34.5260 N   0  0  0  0  0  0  0  0  0  0  0  0
   35.3730   35.9200   31.5240 C   0  0  0  0  0  0  0  0  0  0  0  0
   33.9170   35.7250   31.7210 C   0  0  0  0  0  0  0  0  0  0  0  0
   36.0360   33.9940   33.0650 C   0  0  0  0  0  0  0  0  0  0  0  0
   35.5250   38.7490   29.3310 C   0  0  0  0  0  0  0  0  0  0  0  0
   40.2390   40.9410   30.2300 O   0  0  0  0  0  0  0  0  0  0  0  0
   35.1140   38.0710   30.2590 C   0  0  0  0  0  0  0  0  0  0  0  0
   37.6200   34.7620   30.8560 O   0  0  0  0  0  0  0  0  0  0  0  0
   35.9520   37.2920   31.1160 C   0  0  0  0  0  0  0  0  0  0  0  0
   36.1590   35.3390   32.6620 C   0  0  0  0  0  0  0  0  0  0  0  0
   37.3320   33.2830   33.3110 C   0  0  0  0  0  0  0  0  0  0  0  0
   36.5490   39.9100   29.1530 C   0  0  0  0  0  0  0  0  0  0  0  0
  1  2  1  0
  5  4  2  0
  6  5  2  0
  6  2  1  0
  8  9  1  0
  8 16  1  0
 10 17  1  0
 11 13  1  0
 12  6  2  0
 14  3  1  0
 15 13  1  0
 15  8  1  0
 15  4  1  0
 16  3  1  0
 16 10  1  0
 17  7  1  0
 18 11  1  0
M  END
$$$$

     RDKit          3D

  9  8  0  0  0  0  0  0  0  0999 V2000
   41.3520   38.2750   26.9460 C   0  0  0  0  0  0  0  0  0  0  0  0
   37.8150   39.9470   26.7800 C   0  0  0  0  0  0  0  0  0  0  0  0
   36.8280   40.7760   26.7570 C   0  0  0  0  0  0  0  0  0  0  0  0
   36.4140   41.8770   26.5630 O   0  0  0  0  0  0  0  0  0  0  0  0
   38.7690   38.9310   27.0480 C   0  0  0  0  0  0  0  0  0  0  0  0
   38.2560   37.8910   27.5160 O   0  0  0  0  0  0  0  0  0  0  0  0
   39.9330   38.6310   26.5300 C   0  0  0  0  0  0  0  0  0  0  0  0
   39.6820   37.5910   25.3900 O   0  0  0  0  0  0  0  0  0  0  0  0
   39.0060   41.2780   27.7060 S   0  0  0  0  0  0  0  0  0  0  0  0
  2  5  1  0
  2  9  1  0
  3  2  1  0
  4  3  2  0
  5  6  2  0
  7  1  1  0
  7  5  1  0
  8  7  1  0
M  END
$$$$

     RDKit          3D

  5  4  0  0  0  0  0  0  0  0999 V2000
   38.5420   40.0510   26.9520 C   0  0  0  0  0  0  0  0  0  0  0  0
   38.4080   41.0290   24.7070 N   0  0  0  0  0  0  0  0  0  0  0  0
   38.7370   40.2090   25.3920 C   0  0  0  0  0  0  0  0  0  0  0  0
   39.7610   38.1290   28.0130 N   0  0  0  0  0  0  0  0  0  0  0  0
   38.7170   38.5900   27.2690 C   0  0  0  0  0  0  0  0  0  0  0  0
  1  5  1  0
  2  3  2  0
  3  1  1  0
  5  4  1  0
M  END
$$$$
