
     RDKit          3D

 14 14  0  0  0  0  0  0  0  0999 V2000
   38.2320   35.9150   26.6490 C   0  0  0  0  0  0  0  0  0  0  0  0
   36.6970   34.9370   29.9860 N   0  0  0  0  0  0  0  0  0  0  0  0
   39.7980   34.2040   25.0360 P   0  0  0  0  0  0  0  0  0  0  0  0
   39.7290   33.1670   23.8790 O   0  0  0  0  0  0  0  0  0  0  0  0
   40.5570   35.5060   24.7380 O   0  0  0  0  0  0  0  0  0  0  0  0
   38.2350   34.8650   25.5540 C   0  0  0  0  0  0  0  0  0  0  0  0
   36.7570   35.3920   32.7700 O   0  0  0  0  0  0  0  0  0  0  0  0
   38.2190   34.0780   33.4720 O   0  0  0  0  0  0  0  0  0  0  0  0
   38.5550   35.1920   27.8210 N   0  0  0  0  0  0  0  0  0  0  0  0
   38.0150   34.9440   30.1530 C   0  0  0  0  0  0  0  0  0  0  0  0
   40.4960   33.4760   26.2570 O   0  0  0  0  0  0  0  0  0  0  0  0
   37.8470   34.8370   32.5410 C   0  0  0  0  0  0  0  0  0  0  0  0
   38.6760   34.9190   31.3290 C   0  0  0  0  0  0  0  0  0  0  0  0
   37.5160   35.4580   28.8670 C   0  0  0  0  0  0  0  0  0  0  0  0
  1  9  1  0
  2 10  1  0
  3  6  1  0
  3 11  1  0
  4  3  2  0
  5  3  1  0
  6  1  1  0
 10 13  1  0
 12  7  2  0
 12  8  1  0
 13 12  1  0
 14  9  1  0
 14  2  1  0
 14 10  1  0
M  END
$$$$

     RDKit          3D

  5  6  0  0  0  0  0  0  0  0999 V2000
   40.6590   35.6810   25.5110 N   0  0  0  0  0  0  0  0  0  0  0  0
   41.1590   35.2260   24.1970 C   0  0  0  0  0  0  0  0  0  0  0  0
   38.5380   35.2660   24.0470 N   0  0  0  0  0  0  0  0  0  0  0  0
   39.7950   35.1190   24.3390 C   0  0  0  0  0  0  0  0  0  0  0  0
   39.0860   33.9620   24.1130 C   0  0  0  0  0  0  0  0  0  0  0  0
  2  4  1  0
  2  1  1  0
  3  5  1  0
  3  4  1  0
  4  1  1  0
  5  4  1  0
M  END
$$$$

     RDKit          3D

 22 24  0  0  0  0  0  0  0  0999 V2000
   41.5250   37.9490   28.8520 C   0  0  0  0  0  0  0  0  0  0  0  0
   41.6090   37.1520   26.6990 N   0  0  0  0  0  0  0  0  0  0  0  0
   35.9880   33.0460   31.2160 C   0  0  0  0  0  0  0  0  0  0  0  0
   35.3330   33.6880   32.0600 O   0  0  0  0  0  0  0  0  0  0  0  0
   34.5550   31.2870   33.0420 O   0  0  0  0  0  0  0  0  0  0  0  0
   39.8870   33.4980   25.1920 O   0  0  0  0  0  0  0  0  0  0  0  0
   39.4570   36.3960   29.5490 C   0  0  0  0  0  0  0  0  0  0  0  0
   36.8880   35.5300   31.1310 O   0  0  0  0  0  0  0  0  0  0  0  0
   40.6930   36.1710   27.3980 C   0  0  0  0  0  0  0  0  0  0  0  0
   37.1670   33.3130   30.3150 C   0  0  0  0  0  0  0  0  0  0  0  0
   38.6780   33.0850   25.3030 C   0  0  0  0  0  0  0  0  0  0  0  0
   38.5270   35.2400   29.4920 C   0  0  0  0  0  0  0  0  0  0  0  0
   41.9970   38.2110   27.6090 C   0  0  0  0  0  0  0  0  0  0  0  0
   40.4610   35.1030   26.4260 C   0  0  0  0  0  0  0  0  0  0  0  0
   39.4940   35.2480   27.2830 C   0  0  0  0  0  0  0  0  0  0  0  0
   40.9730   34.3800   25.6420 C   0  0  0  0  0  0  0  0  0  0  0  0
   35.3670   31.2810   32.3770 C   0  0  0  0  0  0  0  0  0  0  0  0
   40.4770   36.8400   28.7670 C   0  0  0  0  0  0  0  0  0  0  0  0
   41.9450   38.7800   29.9620 C   0  0  0  0  0  0  0  0  0  0  0  0
   38.8480   34.4190   28.2200 C   0  0  0  0  0  0  0  0  0  0  0  0
   35.8730   31.7110   31.3090 N   0  0  0  0  0  0  0  0  0  0  0  0
   37.4300   34.8060   30.3300 C   0  0  0  0  0  0  0  0  0  0  0  0
  1 19  1  0
  2 13  1  0
  3 21  1  0
  3  4  2  0
  6 11  1  0
  6 16  1  0
  9  2  1  0
  9 18  1  0
 10 22  1  0
 10  3  1  0
 12  7  1  0
 12 22  1  0
 13  1  1  0
 14 16  1  0
 14 15  1  0
 14  9  1  0
 15  9  1  0
 15 20  1  0
 17  5  2  0
 18  1  1  0
 18  7  2  0
 20 12  1  0
 21 17  1  0
 22  8  2  0
M  END
$$$$

     RDKit          3D

 20 20  0  0  0  0  0  0  0  0999 V2000
   36.3410   33.3730   30.6830 P   0  0  0  0  0  0  0  0  0  0  0  0
   34.9900   32.9040   30.1900 O   0  0  0  0  0  0  0  0  0  0  0  0
   36.5270   33.1440   32.1390 O   0  0  0  0  0  0  0  0  0  0  0  0
   42.1030   34.9800   24.6950 C   0  0  0  0  0  0  0  0  0  0  0  0
   42.4130   36.8320   26.6360 O   0  0  0  0  0  0  0  0  0  0  0  0
   36.6200   34.9120   30.4980 O   0  0  0  0  0  0  0  0  0  0  0  0
   39.8790   35.2580   28.7830 C   0  0  0  0  0  0  0  0  0  0  0  0
   37.3070   35.8540   29.9980 C   0  0  0  0  0  0  0  0  0  0  0  0
   37.9620   30.5070   28.5680 C   0  0  0  0  0  0  0  0  0  0  0  0
   40.0770   34.1990   25.8620 O   0  0  0  0  0  0  0  0  0  0  0  0
   39.7940   35.9080   30.1820 C   0  0  0  0  0  0  0  0  0  0  0  0
   38.6780   35.2870   29.6180 C   0  0  0  0  0  0  0  0  0  0  0  0
   41.4010   35.9920   26.7600 C   0  0  0  0  0  0  0  0  0  0  0  0
   40.9330   35.2270   25.6270 C   0  0  0  0  0  0  0  0  0  0  0  0
   36.3860   30.6020   30.3970 O   0  0  0  0  0  0  0  0  0  0  0  0
   40.7110   36.2760   28.0560 C   0  0  0  0  0  0  0  0  0  0  0  0
   41.7200   36.7570   28.9980 O   0  0  0  0  0  0  0  0  0  0  0  0
   37.5610   32.5650   29.8130 C   0  0  0  0  0  0  0  0  0  0  0  0
   41.9630   33.9580   23.9140 O   0  0  0  0  0  0  0  0  0  0  0  0
   36.9280   31.3070   29.2740 C   0  0  0  0  0  0  0  0  0  0  0  0
  1  2  2  0
  1  3  1  0
  4 14  1  0
  6  1  1  0
  7 16  1  0
  7 12  1  0
  7 11  1  0
  8  6  1  0
 12  8  1  0
 12 11  1  0
 13  5  1  0
 13 16  1  0
 14 10  1  0
 14 13  1  0
 16 17  1  0
 18  1  1  0
 19  4  1  0
 20  9  1  0
 20 18  1  0
 20 15  1  0
M  END
$$$$

     RDKit          3D

 12 11  0  0  0  0  0  0  0  0999 V2000
   38.0210   34.0240   21.2470 O   0  0  0  0  0  0  0  0  0  0  0  0
   40.7310   36.7290   20.6310 C   0  0  0  0  0  0  0  0  0  0  0  0
   38.4320   33.7000   25.5120 N   0  0  0  0  0  0  0  0  0  0  0  0
   38.0620   35.3500   20.8210 C   0  0  0  0  0  0  0  0  0  0  0  0
   40.4740   37.1130   23.3740 O   0  0  0  0  0  0  0  0  0  0  0  0
   39.8550   35.2680   22.0930 O   0  0  0  0  0  0  0  0  0  0  0  0
   39.5090   36.1940   22.9270 C   0  0  0  0  0  0  0  0  0  0  0  0
   39.0440   34.1720   24.4180 C   0  0  0  0  0  0  0  0  0  0  0  0
   37.6520   35.4830   19.5180 O   0  0  0  0  0  0  0  0  0  0  0  0
   40.3540   33.4370   24.0490 C   0  0  0  0  0  0  0  0  0  0  0  0
   38.7900   35.6210   24.0530 C   0  0  0  0  0  0  0  0  0  0  0  0
   39.5190   35.8080   20.8420 C   0  0  0  0  0  0  0  0  0  0  0  0
  4 12  1  0
  4  1  1  0
  6  7  1  0
  7  5  1  0
  7 11  1  0
  8 10  1  0
  8  3  1  0
  9  4  1  0
 11  8  1  0
 12  2  1  0
 12  6  1  0
M  END
$$$$

     RDKit          3D

  9  9  0  0  0  0  0  0  0  0999 V2000
   39.0260   35.6470   21.7570 C   0  0  0  0  0  0  0  0  0  0  0  0
   39.3590   34.9890   22.9730 C   0  0  0  0  0  0  0  0  0  0  0  0
   38.5220   33.4570   24.4860 O   0  0  0  0  0  0  0  0  0  0  0  0
   41.2250   35.4790   24.1240 C   0  0  0  0  0  0  0  0  0  0  0  0
   37.8950   35.1820   21.5310 O   0  0  0  0  0  0  0  0  0  0  0  0
   39.6320   36.3990   20.9640 O   0  0  0  0  0  0  0  0  0  0  0  0
   40.8090   35.6460   22.7620 C   0  0  0  0  0  0  0  0  0  0  0  0
   39.4330   34.2640   24.0260 C   0  0  0  0  0  0  0  0  0  0  0  0
   40.7360   34.1960   24.6490 C   0  0  0  0  0  0  0  0  0  0  0  0
  1  2  1  0
  2  8  2  0
  4  9  1  0
  5  1  1  0
  6  1  2  0
  7  2  1  0
  7  4  1  0
  8  3  1  0
  8  9  1  0
M  END
$$$$

     RDKit          3D

 12 14  0  0  0  0  0  0  0  0999 V2000
   40.8830   33.9990   24.5520 C   0  0  0  0  0  0  0  0  0  0  0  0
   39.5970   35.9160   25.2760 C   0  0  0  0  0  0  0  0  0  0  0  0
   36.8720   35.1660   26.7420 C   0  0  0  0  0  0  0  0  0  0  0  0
   40.4120   32.9130   23.9350 O   0  0  0  0  0  0  0  0  0  0  0  0
   41.2210   36.7300   24.6070 S   0  0  0  0  0  0  0  0  0  0  0  0
   39.0430   34.6300   25.7080 C   0  0  0  0  0  0  0  0  0  0  0  0
   37.9340   34.1150   26.1740 C   0  0  0  0  0  0  0  0  0  0  0  0
   39.1440   37.8630   26.6560 O   0  0  0  0  0  0  0  0  0  0  0  0
   40.1960   34.5380   25.4990 C   0  0  0  0  0  0  0  0  0  0  0  0
   38.7430   36.8420   26.2150 C   0  0  0  0  0  0  0  0  0  0  0  0
   41.5820   35.1940   23.5100 S   0  0  0  0  0  0  0  0  0  0  0  0
   37.3510   36.4800   26.4110 C   0  0  0  0  0  0  0  0  0  0  0  0
  2  5  1  0
  2  9  1  0
  2  6  1  0
  2 10  1  0
  4  1  2  0
  6  7  1  0
  7  3  1  0
  9  1  1  0
  9  6  1  0
 10 12  1  0
 10  8  2  0
 11  1  1  0
 11  5  1  0
 12  3  1  0
M  END
$$$$

     RDKit          3D

 14 14  0  0  0  0  0  0  0  0999 V2000
   40.2720   35.8260   27.1720 C   0  0  0  0  0  0  0  0  0  0  0  0
   39.6960   31.9760   27.9600 O   0  0  0  0  0  0  0  0  0  0  0  0
   39.4770   32.9550   25.3880 O   0  0  0  0  0  0  0  0  0  0  0  0
   41.3000   36.1770   29.2960 C   0  0  0  0  0  0  0  0  0  0  0  0
   39.7690   33.6900   26.3860 C   0  0  0  0  0  0  0  0  0  0  0  0
   40.9660   33.5250   30.3660 S   0  0  0  0  0  0  0  0  0  0  0  0
   40.6530   35.2990   28.4140 C   0  0  0  0  0  0  0  0  0  0  0  0
   42.3760   33.3270   30.3810 O   0  0  0  0  0  0  0  0  0  0  0  0
   40.5100   33.9960   28.7520 C   0  0  0  0  0  0  0  0  0  0  0  0
   40.1900   35.0410   26.0860 N   0  0  0  0  0  0  0  0  0  0  0  0
   40.6870   34.6050   31.3990 O   0  0  0  0  0  0  0  0  0  0  0  0
   40.0270   33.2600   27.7030 C   0  0  0  0  0  0  0  0  0  0  0  0
   40.0830   32.4490   30.3860 O   0  0  0  0  0  0  0  0  0  0  0  0
   41.2840   37.0410   30.0000 N   0  0  0  0  0  0  0  0  0  0  0  0
  1  7  1  0
  3  5  2  0
  4 14  2  0
  5 12  1  0
  6  8  1  0
  6 13  1  0
  6 11  1  0
  7  9  1  0
  7  4  1  0
  9  6  1  0
 10  5  1  0
 10  1  1  0
 12  2  1  0
 12  9  2  0
M  END
$$$$

     RDKit          3D

 19 20  0  0  0  0  0  0  0  0999 V2000
   42.4650   37.4010   25.8820 C   0  0  0  0  0  0  0  0  0  0  0  0
   40.1410   33.9290   30.8130 N   0  0  0  0  0  0  0  0  0  0  0  0
   37.0980   29.8010   31.9870 N   0  0  0  0  0  0  0  0  0  0  0  0
   38.7550   33.8280   30.6410 C   0  0  0  0  0  0  0  0  0  0  0  0
   42.8780   39.0000   24.1060 C   0  0  0  0  0  0  0  0  0  0  0  0
   44.2690   38.0370   24.5420 C   0  0  0  0  0  0  0  0  0  0  0  0
   37.8040   31.8610   31.9770 C   0  0  0  0  0  0  0  0  0  0  0  0
   39.0180   33.3960   33.0630 N   0  0  0  0  0  0  0  0  0  0  0  0
   39.5280   36.9320   28.2640 C   0  0  0  0  0  0  0  0  0  0  0  0
   40.5450   38.5450   25.0020 C   0  0  0  0  0  0  0  0  0  0  0  0
   40.4050   37.2840   27.0910 C   0  0  0  0  0  0  0  0  0  0  0  0
   39.7640   38.0640   26.0540 C   0  0  0  0  0  0  0  0  0  0  0  0
   39.7360   35.6760   28.9620 N   0  0  0  0  0  0  0  0  0  0  0  0
   41.6950   36.8490   26.8530 C   0  0  0  0  0  0  0  0  0  0  0  0
   43.8370   37.2930   25.6680 N   0  0  0  0  0  0  0  0  0  0  0  0
   38.5640   35.0390   29.5850 C   0  0  0  0  0  0  0  0  0  0  0  0
   41.9130   38.2760   24.9590 C   0  0  0  0  0  0  0  0  0  0  0  0
   36.9900   30.9270   32.4510 N   0  0  0  0  0  0  0  0  0  0  0  0
   38.4100   33.0250   31.9500 C   0  0  0  0  0  0  0  0  0  0  0  0
  1 14  1  0
  3 18  2  0
  4  2  1  0
  4 19  1  0
  5  6  1  0
  5 17  1  0
  6 15  1  0
  7 18  1  0
  9 13  1  0
 10 12  2  0
 11  9  1  0
 12 11  1  0
 13 16  2  3
 14 11  2  0
 15  1  1  0
 16  4  1  0
 17 10  1  0
 17  1  2  0
 19  7  1  0
 19  8  2  0
M  END
$$$$

     RDKit          3D

 11 10  0  0  0  0  0  0  0  0999 V2000
   39.5410   33.7640   22.8010 C   0  0  0  0  0  0  0  0  0  0  0  0
   39.5230   34.0670   24.2440 C   0  0  0  0  0  0  0  0  0  0  0  0
   39.6450   38.5360   23.1830 O   0  0  0  0  0  0  0  0  0  0  0  0
   41.1000   36.6660   24.5300 O   0  0  0  0  0  0  0  0  0  0  0  0
   40.8630   37.1370   22.0240 O   0  0  0  0  0  0  0  0  0  0  0  0
   40.0670   36.3890   23.9850 C   0  0  0  0  0  0  0  0  0  0  0  0
   40.3650   33.4050   24.8500 O   0  0  0  0  0  0  0  0  0  0  0  0
   39.0530   35.4760   24.5670 C   0  0  0  0  0  0  0  0  0  0  0  0
   39.5600   34.6700   21.7400 O   0  0  0  0  0  0  0  0  0  0  0  0
   39.2950   32.5050   22.3150 O   0  0  0  0  0  0  0  0  0  0  0  0
   39.8700   37.1550   22.7590 C   0  0  0  0  0  0  0  0  0  0  0  0
  1  2  1  0
  2  8  1  0
  2  7  2  0
  5 11  1  0
  6  4  2  0
  6  8  1  0
  9  1  2  0
 10  1  1  0
 11  3  1  0
 11  6  1  0
M  END
$$$$

     RDKit          3D

 10 10  0  0  0  0  0  0  0  0999 V2000
   41.4210   35.0870   23.9570 C   0  0  0  0  0  0  0  0  0  0  0  0
   41.9750   35.3960   22.5850 N   0  0  0  0  0  0  0  0  0  0  0  0
   39.3470   34.4510   26.0610 C   0  0  0  0  0  0  0  0  0  0  0  0
   39.7660   33.4710   25.0990 C   0  0  0  0  0  0  0  0  0  0  0  0
   41.0120   36.1260   25.0090 C   0  0  0  0  0  0  0  0  0  0  0  0
   40.0260   35.7720   26.1210 C   0  0  0  0  0  0  0  0  0  0  0  0
   40.6170   33.7880   24.0290 C   0  0  0  0  0  0  0  0  0  0  0  0
   41.6020   38.1440   26.1580 O   0  0  0  0  0  0  0  0  0  0  0  0
   41.4970   37.5470   25.0280 C   0  0  0  0  0  0  0  0  0  0  0  0
   41.7510   38.1980   23.9820 O   0  0  0  0  0  0  0  0  0  0  0  0
  1  7  2  0
  1  5  1  0
  2  1  1  0
  3  6  1  0
  4  3  2  0
  5  9  1  0
  5  6  2  0
  7  4  1  0
  9  8  1  0
 10  9  2  0
M  END
$$$$

     RDKit          3D

 12 11  0  0  0  0  0  0  0  0999 V2000
   39.8860   35.5950   23.5670 C   0  0  0  0  0  0  0  0  0  0  0  0
   38.1550   31.9380   20.8900 O   0  0  0  0  0  0  0  0  0  0  0  0
   39.0800   32.7520   21.5470 C   0  0  0  0  0  0  0  0  0  0  0  0
   38.5540   33.6320   24.6540 C   0  0  0  0  0  0  0  0  0  0  0  0
   38.4990   33.9050   22.0570 C   0  0  0  0  0  0  0  0  0  0  0  0
   40.7140   37.9020   22.0650 C   0  0  0  0  0  0  0  0  0  0  0  0
   39.1580   34.2270   23.3810 C   0  0  0  0  0  0  0  0  0  0  0  0
   38.6960   36.4100   23.9410 O   0  0  0  0  0  0  0  0  0  0  0  0
   40.6520   36.8460   25.3540 O   0  0  0  0  0  0  0  0  0  0  0  0
   41.0530   36.4840   24.0460 C   0  0  0  0  0  0  0  0  0  0  0  0
   37.4030   34.5620   21.2260 C   0  0  0  0  0  0  0  0  0  0  0  0
   41.2200   37.8270   23.2960 C   0  0  0  0  0  0  0  0  0  0  0  0
  1  8  1  0
  1 10  1  0
  2  3  1  0
  3  5  1  0
  5 11  1  0
  5  7  1  0
  6 12  2  0
  7  1  1  0
  7  4  1  0
 10  9  1  0
 12 10  1  0
M  END
$$$$

     RDKit          3D

 16 16  0  0  0  0  0  0  0  0999 V2000
   38.6730   35.1130   28.0990 C   0  0  0  0  0  0  0  0  0  0  0  0
   41.9840   36.4230   25.8690 C   0  0  0  0  0  0  0  0  0  0  0  0
   38.6300   35.0920   31.9420 C   0  0  0  0  0  0  0  0  0  0  0  0
   36.7650   34.9270   34.4880 C   0  0  0  0  0  0  0  0  0  0  0  0
   41.6140   34.6260   24.1970 C   0  0  0  0  0  0  0  0  0  0  0  0
   39.8010   35.4350   25.8590 C   0  0  0  0  0  0  0  0  0  0  0  0
   36.8960   33.4740   31.0340 C   0  0  0  0  0  0  0  0  0  0  0  0
   38.9040   35.6210   30.5380 C   0  0  0  0  0  0  0  0  0  0  0  0
   41.2490   35.2440   25.4860 C   0  0  0  0  0  0  0  0  0  0  0  0
   37.0450   33.8990   33.4620 C   0  0  0  0  0  0  0  0  0  0  0  0
   35.9670   33.0000   33.7220 O   0  0  0  0  0  0  0  0  0  0  0  0
   39.5440   34.5190   27.0490 C   0  0  0  0  0  0  0  0  0  0  0  0
   37.8560   33.5030   29.8510 C   0  0  0  0  0  0  0  0  0  0  0  0
   39.5730   33.2320   26.3230 N   0  0  0  0  0  0  0  0  0  0  0  0
   38.0070   34.9700   29.4850 C   0  0  0  0  0  0  0  0  0  0  0  0
   37.2060   34.5270   32.0840 C   0  0  0  0  0  0  0  0  0  0  0  0
  3 16  1  0
  5  9  1  0
  6 12  1  0
  7 16  1  0
  8  3  1  0
  9  6  1  0
  9  2  1  0
 10 11  1  0
 10  4  1  0
 12 14  1  0
 12  1  1  0
 13  7  1  0
 15  1  1  0
 15 13  1  0
 15  8  1  0
 16 10  1  0
M  END
$$$$

     RDKit          3D

 20 22  0  0  0  0  0  0  0  0999 V2000
   42.9850   35.9280   23.4520 C   0  0  0  0  0  0  0  0  0  0  0  0
   43.4790   37.1840   23.3230 C   0  0  0  0  0  0  0  0  0  0  0  0
   35.7030   36.0870   26.9090 C   0  0  0  0  0  0  0  0  0  0  0  0
   42.0070   37.9750   24.9900 C   0  0  0  0  0  0  0  0  0  0  0  0
   33.0990   36.7580   29.4350 C   0  0  0  0  0  0  0  0  0  0  0  0
   34.3420   35.9070   29.5970 C   0  0  0  0  0  0  0  0  0  0  0  0
   39.2750   35.5470   25.8140 C   0  0  0  0  0  0  0  0  0  0  0  0
   35.6500   36.4990   29.2640 C   0  0  0  0  0  0  0  0  0  0  0  0
   37.6400   35.2330   28.3770 C   0  0  0  0  0  0  0  0  0  0  0  0
   41.8360   35.7890   24.1180 C   0  0  0  0  0  0  0  0  0  0  0  0
   38.0340   36.3830   26.1180 C   0  0  0  0  0  0  0  0  0  0  0  0
   43.0790   38.1440   24.1140 C   0  0  0  0  0  0  0  0  0  0  0  0
   40.5330   36.3340   26.0970 C   0  0  0  0  0  0  0  0  0  0  0  0
   32.6840   37.0690   30.5600 O   0  0  0  0  0  0  0  0  0  0  0  0
   38.4420   35.0720   27.0250 C   0  0  0  0  0  0  0  0  0  0  0  0
   41.3160   36.8350   24.8550 N   0  0  0  0  0  0  0  0  0  0  0  0
   36.2260   35.7830   28.0870 C   0  0  0  0  0  0  0  0  0  0  0  0
   32.2750   36.4010   28.3690 N   0  0  0  0  0  0  0  0  0  0  0  0
   34.5720   36.4700   26.5520 O   0  0  0  0  0  0  0  0  0  0  0  0
   36.6240   36.2050   25.6630 C   0  0  0  0  0  0  0  0  0  0  0  0
  1 10  2  0
  2  1  1  0
  2 12  2  0
  3 17  1  0
  5  6  1  0
  5 14  2  0
  7 13  1  0
  7 11  1  0
  7 15  1  0
  8  6  1  0
 10 16  1  0
 11 20  1  0
 11 15  1  0
 12  4  1  0
 15  9  1  0
 16  4  1  0
 16 13  1  0
 17  9  1  0
 17  8  1  0
 18  5  1  0
 19  3  2  0
 20  3  1  0
M  END
$$$$

     RDKit          3D

 20 20  0  0  0  0  0  0  0  0999 V2000
   36.6010   34.3850   33.2900 C   0  0  0  0  0  0  0  0  0  0  0  0
   39.3900   33.7880   30.0510 C   0  0  0  0  0  0  0  0  0  0  0  0
   36.9520   34.4910   31.8060 C   0  0  0  0  0  0  0  0  0  0  0  0
   39.9640   35.4200   27.2630 N   0  0  0  0  0  0  0  0  0  0  0  0
   38.9780   35.0320   30.4070 C   0  0  0  0  0  0  0  0  0  0  0  0
   37.6830   32.2190   35.5680 C   0  0  0  0  0  0  0  0  0  0  0  0
   37.1460   34.7920   34.6640 C   0  0  0  0  0  0  0  0  0  0  0  0
   39.4540   35.9130   29.4820 C   0  0  0  0  0  0  0  0  0  0  0  0
   41.3610   36.4240   23.3140 C   0  0  0  0  0  0  0  0  0  0  0  0
   38.2130   35.3360   31.6430 C   0  0  0  0  0  0  0  0  0  0  0  0
   40.9090   36.1620   21.8840 C   0  0  0  0  0  0  0  0  0  0  0  0
   38.9440   33.2450   33.9850 C   0  0  0  0  0  0  0  0  0  0  0  0
   38.5420   34.0320   36.4700 C   0  0  0  0  0  0  0  0  0  0  0  0
   37.9890   33.5930   35.1290 C   0  0  0  0  0  0  0  0  0  0  0  0
   42.9440   36.4710   23.5110 N   0  0  0  0  0  0  0  0  0  0  0  0
   40.8720   35.3010   24.2100 C   0  0  0  0  0  0  0  0  0  0  0  0
   41.5230   35.3890   25.5010 C   0  0  0  0  0  0  0  0  0  0  0  0
   40.6730   36.0600   26.5140 C   0  0  0  0  0  0  0  0  0  0  0  0
   39.9410   35.0960   28.4780 C   0  0  0  0  0  0  0  0  0  0  0  0
   40.0870   33.8490   28.8490 C   0  0  0  0  0  0  0  0  0  0  0  0
  1  7  1  0
  2  5  1  0
  3  1  1  0
  5 10  1  0
  7 14  1  0
  8  5  1  0
  9 11  1  0
  9 15  1  0
  9 16  1  0
 10  3  1  0
 12 14  1  0
 14  6  1  0
 14 13  1  0
 16 17  1  0
 17 18  1  0
 18  4  1  0
 19  4  1  0
 19 20  1  0
 19  8  1  0
 20  2  1  0
M  END
$$$$

     RDKit          3D

 10  9  0  0  0  0  0  0  0  0999 V2000
   41.5980   35.5560   24.6630 C   0  0  0  0  0  0  0  0  0  0  0  0
   40.1720   34.9210   20.4410 O   0  0  0  0  0  0  0  0  0  0  0  0
   40.6280   34.6720   22.8140 C   0  0  0  0  0  0  0  0  0  0  0  0
   40.9650   34.5310   21.3870 C   0  0  0  0  0  0  0  0  0  0  0  0
   42.3020   36.5200   22.5740 C   0  0  0  0  0  0  0  0  0  0  0  0
   39.6930   33.7320   23.2340 O   0  0  0  0  0  0  0  0  0  0  0  0
   40.2120   37.1070   23.4950 C   0  0  0  0  0  0  0  0  0  0  0  0
   41.0180   36.0480   23.3570 C   0  0  0  0  0  0  0  0  0  0  0  0
   40.7210   35.7920   25.7320 O   0  0  0  0  0  0  0  0  0  0  0  0
   40.7500   38.2260   24.1680 O   0  0  0  0  0  0  0  0  0  0  0  0
  1  9  1  0
  2  4  1  0
  3  6  1  0
  3  8  1  0
  4  3  1  0
  5  8  1  0
  7 10  1  0
  8  7  1  0
  8  1  1  0
M  END
$$$$

     RDKit          3D

 10 10  0  0  0  0  0  0  0  0999 V2000
   38.2490   33.9270   23.0610 C   0  0  0  0  0  0  0  0  0  0  0  0
   38.2570   36.5840   22.5910 O   0  0  0  0  0  0  0  0  0  0  0  0
   38.7360   35.3710   23.0670 C   0  0  0  0  0  0  0  0  0  0  0  0
   41.9910   38.4020   22.9590 O   0  0  0  0  0  0  0  0  0  0  0  0
   39.0650   33.1680   24.0220 N   0  0  0  0  0  0  0  0  0  0  0  0
   40.3430   33.8750   24.2240 C   0  0  0  0  0  0  0  0  0  0  0  0
   40.6560   37.8710   23.4040 S   0  0  0  0  0  0  0  0  0  0  0  0
   39.5360   38.7310   23.2210 O   0  0  0  0  0  0  0  0  0  0  0  0
   40.4180   36.7610   24.2990 N   0  0  0  0  0  0  0  0  0  0  0  0
   40.0450   35.3630   23.9960 C   0  0  0  0  0  0  0  0  0  0  0  0
  1  3  1  0
  1  5  1  0
  2  3  1  0
  3 10  2  0
  5  6  1  0
  7  4  1  0
  7  9  1  0
  8  7  2  0
 10  6  1  0
 10  9  1  0
M  END
$$$$

     RDKit          3D

  7  6  0  0  0  0  0  0  0  0999 V2000
   39.5460   36.0850   24.2140 C   0  0  0  0  0  0  0  0  0  0  0  0
   40.4600   35.2770   23.6610 C   0  0  0  0  0  0  0  0  0  0  0  0
   40.7900   34.1920   24.5660 O   0  0  0  0  0  0  0  0  0  0  0  0
   42.1740   37.1000   20.3660 N   0  0  0  0  0  0  0  0  0  0  0  0
   41.7580   35.6910   23.0450 C   0  0  0  0  0  0  0  0  0  0  0  0
   42.8240   35.7420   20.8950 C   0  0  0  0  0  0  0  0  0  0  0  0
   41.8810   35.5150   22.0110 O   0  0  0  0  0  0  0  0  0  0  0  0
  2  1  1  0
  2  3  1  0
  4  6  1  0
  5  2  1  0
  6  7  1  0
  7  5  1  0
M  END
$$$$

     RDKit          3D

 11 11  0  0  0  0  0  0  0  0999 V2000
   35.8360   32.3230   32.4440 O   0  0  0  0  0  0  0  0  0  0  0  0
   39.4800   34.6120   28.1780 N   0  0  0  0  0  0  0  0  0  0  0  0
   39.4580   34.5300   30.5340 O   0  0  0  0  0  0  0  0  0  0  0  0
   37.4120   32.3380   30.1380 C   0  0  0  0  0  0  0  0  0  0  0  0
   38.9590   33.3850   28.6600 C   0  0  0  0  0  0  0  0  0  0  0  0
   34.0440   33.1100   31.4350 O   0  0  0  0  0  0  0  0  0  0  0  0
   38.3620   33.6310   30.0320 C   0  0  0  0  0  0  0  0  0  0  0  0
   38.0880   32.7180   27.6450 C   0  0  0  0  0  0  0  0  0  0  0  0
   40.1870   35.1440   29.3130 C   0  0  0  0  0  0  0  0  0  0  0  0
   35.2990   32.8300   31.4250 C   0  0  0  0  0  0  0  0  0  0  0  0
   35.9840   32.8310   30.0910 C   0  0  0  0  0  0  0  0  0  0  0  0
  2  5  1  0
  2  9  1  0
  5  8  1  0
  5  7  1  0
  7  4  1  0
  7  3  1  0
  9  3  1  0
 10  6  2  0
 10  1  1  0
 11  4  1  0
 11 10  1  0
M  END
$$$$

     RDKit          3D

 11 10  0  0  0  0  0  0  0  0999 V2000
   39.7890   35.4270   25.4400 C   0  0  0  0  0  0  0  0  0  0  0  0
   40.1580   35.2300   26.9380 C   0  0  0  0  0  0  0  0  0  0  0  0
   35.0800   35.6590   30.5790 C   0  0  0  0  0  0  0  0  0  0  0  0
   36.4900   35.1430   30.3280 C   0  0  0  0  0  0  0  0  0  0  0  0
   40.8680   33.3560   22.8050 C   0  0  0  0  0  0  0  0  0  0  0  0
   39.8950   34.0290   24.8400 C   0  0  0  0  0  0  0  0  0  0  0  0
   38.1190   35.8470   28.3360 C   0  0  0  0  0  0  0  0  0  0  0  0
   36.8350   35.0360   28.8560 C   0  0  0  0  0  0  0  0  0  0  0  0
   41.0680   33.5200   24.2940 C   0  0  0  0  0  0  0  0  0  0  0  0
   41.7390   33.0120   22.0090 O   0  0  0  0  0  0  0  0  0  0  0  0
   39.0280   34.7010   27.7960 C   0  0  0  0  0  0  0  0  0  0  0  0
  1  2  1  0
  2 11  1  0
  4  3  1  0
  5  9  1  0
  6  1  1  0
  7  8  1  0
  8  4  1  0
  9  6  1  0
 10  5  2  0
 11  7  1  0
M  END
$$$$
