
     RDKit          3D

 11 10  0  0  0  0  0  0  0  0999 V2000
   42.7610   37.9730   30.3710 C   0  0  0  0  0  0  0  0  0  0  0  0
   42.2950   38.8530   31.4300 C   0  0  0  0  0  0  0  0  0  0  0  0
   44.0940   38.2160   29.8370 O   0  0  0  0  0  0  0  0  0  0  0  0
   40.4300   40.0280   32.2720 C   0  0  0  0  0  0  0  0  0  0  0  0
   40.9210   40.8690   33.1360 O   0  0  0  0  0  0  0  0  0  0  0  0
   43.2230   38.8790   32.5510 O   0  0  0  0  0  0  0  0  0  0  0  0
   40.9720   38.5650   32.1980 C   0  0  0  0  0  0  0  0  0  0  0  0
   39.3700   36.9420   30.9040 C   0  0  0  0  0  0  0  0  0  0  0  0
   40.5800   37.2210   31.6780 C   0  0  0  0  0  0  0  0  0  0  0  0
   39.5550   40.4030   31.4200 O   0  0  0  0  0  0  0  0  0  0  0  0
   41.3590   35.9840   32.0120 C   0  0  0  0  0  0  0  0  0  0  0  0
  1  2  1  0
  2  7  1  0
  2  6  1  0
  3  1  1  0
  4  5  1  0
  7  9  1  0
  7  4  1  0
  8  9  1  0
  9 11  1  0
 10  4  2  0
M  END
$$$$

     RDKit          3D

 30 33  0  0  0  0  0  0  0  0999 V2000
   42.8430   42.5970   29.5500 C   0  0  0  0  0  0  0  0  0  0  0  0
   37.9180   27.9200   36.4440 C   0  0  0  0  0  0  0  0  0  0  0  0
   40.6080   41.1620   32.2910 C   0  0  0  0  0  0  0  0  0  0  0  0
   37.2690   35.8530   33.2040 C   0  0  0  0  0  0  0  0  0  0  0  0
   41.6750   38.6240   32.2330 C   0  0  0  0  0  0  0  0  0  0  0  0
   36.5820   27.6890   33.2070 O   0  0  0  0  0  0  0  0  0  0  0  0
   38.8320   37.6810   32.5610 C   0  0  0  0  0  0  0  0  0  0  0  0
   40.7690   43.7660   28.8320 O   0  0  0  0  0  0  0  0  0  0  0  0
   39.1870   39.1360   32.6310 C   0  0  0  0  0  0  0  0  0  0  0  0
   38.6320   27.0980   37.5900 C   0  0  0  0  0  0  0  0  0  0  0  0
   38.6510   25.5310   37.8070 C   0  0  0  0  0  0  0  0  0  0  0  0
   37.5710   37.2340   32.9030 C   0  0  0  0  0  0  0  0  0  0  0  0
   39.8870   36.6760   32.2600 C   0  0  0  0  0  0  0  0  0  0  0  0
   40.4980   39.6090   32.3580 C   0  0  0  0  0  0  0  0  0  0  0  0
   41.2170   41.9910   31.4110 C   0  0  0  0  0  0  0  0  0  0  0  0
   38.2580   34.9070   33.1520 C   0  0  0  0  0  0  0  0  0  0  0  0
   37.7400   33.3370   33.1170 C   0  0  0  0  0  0  0  0  0  0  0  0
   39.4070   35.2720   32.5460 C   0  0  0  0  0  0  0  0  0  0  0  0
   37.4380   29.2690   36.3490 C   0  0  0  0  0  0  0  0  0  0  0  0
   36.9480   28.1990   34.3410 N   0  0  0  0  0  0  0  0  0  0  0  0
   41.8010   43.1660   28.5870 C   0  0  0  0  0  0  0  0  0  0  0  0
   37.2470   32.1270   33.7940 N   0  0  0  0  0  0  0  0  0  0  0  0
   37.1600   29.6350   34.3770 C   0  0  0  0  0  0  0  0  0  0  0  0
   42.1950   42.1310   30.8220 C   0  0  0  0  0  0  0  0  0  0  0  0
   36.2750   33.0520   33.1620 C   0  0  0  0  0  0  0  0  0  0  0  0
   41.8440   42.9470   27.3850 O   0  0  0  0  0  0  0  0  0  0  0  0
   41.1930   37.2320   31.6440 C   0  0  0  0  0  0  0  0  0  0  0  0
   37.6740   30.2930   35.5410 O   0  0  0  0  0  0  0  0  0  0  0  0
   37.2480   27.3460   35.3820 N   0  0  0  0  0  0  0  0  0  0  0  0
   36.9020   30.7360   33.3440 C   0  0  0  0  0  0  0  0  0  0  0  0
  1 24  1  0
  2 10  1  0
  3 14  1  0
  5 14  1  0
  6 20  1  0
  7  9  1  0
  7 12  1  0
 10 11  1  0
 12  4  2  0
 13 18  1  0
 13  7  2  0
 14  9  2  0
 15  3  1  0
 16  4  1  0
 17 16  1  0
 17 25  1  0
 17 22  1  0
 18 16  2  0
 19  2  1  0
 20 23  1  0
 20 29  1  0
 21  8  1  0
 21  1  1  0
 23 28  1  0
 24 15  1  0
 25 22  1  0
 26 21  2  0
 27  5  1  0
 27 13  1  0
 28 19  1  0
 29  2  1  0
 30 22  1  0
 30 23  2  3
M  END
$$$$

     RDKit          3D

 19 20  0  0  0  0  0  0  0  0999 V2000
   42.6290   37.3310   31.4950 C   0  0  0  0  0  0  0  0  0  0  0  0
   38.0540   34.8870   33.9280 C   0  0  0  0  0  0  0  0  0  0  0  0
   37.6730   31.4670   35.1010 C   0  0  0  0  0  0  0  0  0  0  0  0
   37.8830   33.6490   34.7650 C   0  0  0  0  0  0  0  0  0  0  0  0
   39.2370   35.0940   33.7220 O   0  0  0  0  0  0  0  0  0  0  0  0
   37.3330   31.5470   37.4970 C   0  0  0  0  0  0  0  0  0  0  0  0
   35.4170   34.8180   33.7000 Cl  0  0  0  0  0  0  0  0  0  0  0  0
   39.6960   36.9890   32.2550 C   0  0  0  0  0  0  0  0  0  0  0  0
   36.9660   35.5220   33.4050 C   0  0  0  0  0  0  0  0  0  0  0  0
   41.8790   36.1070   31.0530 C   0  0  0  0  0  0  0  0  0  0  0  0
   37.9390   30.6610   36.4390 C   0  0  0  0  0  0  0  0  0  0  0  0
   40.5120   35.7670   31.6530 C   0  0  0  0  0  0  0  0  0  0  0  0
   37.3210   33.0310   37.1160 C   0  0  0  0  0  0  0  0  0  0  0  0
   37.5890   32.9880   35.7170 C   0  0  0  0  0  0  0  0  0  0  0  0
   41.7630   38.5520   31.8260 C   0  0  0  0  0  0  0  0  0  0  0  0
   36.9650   36.5380   32.6990 C   0  0  0  0  0  0  0  0  0  0  0  0
   40.2910   38.3720   32.0250 C   0  0  0  0  0  0  0  0  0  0  0  0
   37.7770   38.7660   32.1370 C   0  0  0  0  0  0  0  0  0  0  0  0
   38.2110   37.3500   32.4700 C   0  0  0  0  0  0  0  0  0  0  0  0
  1 15  1  0
  2  4  2  0
  3 14  1  0
  3 11  1  0
  4 14  2  0
  5  2  1  0
  8 19  1  0
  9  7  1  0
  9  2  1  0
 10  1  2  0
 10 12  1  0
 11  6  1  0
 12  8  2  0
 13  6  1  0
 14 13  1  0
 15 17  2  0
 16  9  2  3
 17  8  1  0
 19 18  1  0
 19 16  1  0
M  END
$$$$

     RDKit          3D

 25 28  0  0  0  0  0  0  0  0999 V2000
   40.2780   38.1820   32.2750 C   0  0  0  0  0  0  0  0  0  0  0  0
   38.8000   36.5210   34.2280 N   0  0  0  0  0  0  0  0  0  0  0  0
   39.8300   37.5220   34.4520 C   0  0  0  0  0  0  0  0  0  0  0  0
   41.7720   37.5390   30.6300 C   0  0  0  0  0  0  0  0  0  0  0  0
   39.4000   39.3460   32.4000 C   0  0  0  0  0  0  0  0  0  0  0  0
   39.1460   31.9810   35.2050 C   0  0  0  0  0  0  0  0  0  0  0  0
   39.1400   30.5800   35.1480 C   0  0  0  0  0  0  0  0  0  0  0  0
   37.9320   35.7380   32.4240 C   0  0  0  0  0  0  0  0  0  0  0  0
   38.8550   32.6510   36.3480 C   0  0  0  0  0  0  0  0  0  0  0  0
   39.3670   32.7020   33.9680 C   0  0  0  0  0  0  0  0  0  0  0  0
   38.4000   33.7720   33.8350 N   0  0  0  0  0  0  0  0  0  0  0  0
   41.4350   39.7960   31.4970 C   0  0  0  0  0  0  0  0  0  0  0  0
   36.8230   36.2730   33.2320 C   0  0  0  0  0  0  0  0  0  0  0  0
   39.9760   40.2210   31.3640 C   0  0  0  0  0  0  0  0  0  0  0  0
   39.0850   35.0260   34.3480 C   0  0  0  0  0  0  0  0  0  0  0  0
   39.1530   29.9530   36.3340 C   0  0  0  0  0  0  0  0  0  0  0  0
   38.8670   32.0130   37.5690 C   0  0  0  0  0  0  0  0  0  0  0  0
   37.4720   36.7510   34.2490 C   0  0  0  0  0  0  0  0  0  0  0  0
   41.1360   38.3900   31.3730 C   0  0  0  0  0  0  0  0  0  0  0  0
   40.8970   37.6790   33.5670 C   0  0  0  0  0  0  0  0  0  0  0  0
   39.1730   30.6960   37.5860 C   0  0  0  0  0  0  0  0  0  0  0  0
   42.4480   40.8240   30.6040 S   0  0  0  0  0  0  0  0  0  0  0  0
   39.6230   38.4620   35.4110 O   0  0  0  0  0  0  0  0  0  0  0  0
   39.0850   35.7340   33.0680 C   0  0  0  0  0  0  0  0  0  0  0  0
   35.6420   36.8900   32.4950 C   0  0  0  0  0  0  0  0  0  0  0  0
  1  5  1  0
  1 20  1  0
  2 18  1  0
  2 15  1  0
  2  3  1  0
  3 23  2  0
  4 19  2  0
  6  9  1  0
  7  6  2  0
  7 16  1  0
  8 13  1  0
  9 17  2  0
 10  6  1  0
 11 10  1  0
 12 22  1  0
 13 25  1  0
 13 18  1  0
 14 12  1  0
 14  5  1  0
 15 11  1  0
 16 21  2  0
 17 21  1  0
 19 12  1  0
 19  1  1  0
 20  3  1  0
 24  8  1  0
 24  2  1  0
 24 15  1  0
M  END
$$$$

     RDKit          3D

 10 11  0  0  0  0  0  0  0  0999 V2000
   42.0790   36.7650   30.9370 N   0  0  0  0  0  0  0  0  0  0  0  0
   36.9700   39.4360   31.7920 N   0  0  0  0  0  0  0  0  0  0  0  0
   40.9690   36.6590   31.8350 C   0  0  0  0  0  0  0  0  0  0  0  0
   38.5300   37.8590   31.9570 C   0  0  0  0  0  0  0  0  0  0  0  0
   37.3750   37.2520   32.0030 C   0  0  0  0  0  0  0  0  0  0  0  0
   36.4880   38.2620   31.6790 C   0  0  0  0  0  0  0  0  0  0  0  0
   40.1240   37.7260   31.7900 C   0  0  0  0  0  0  0  0  0  0  0  0
   40.9010   38.7900   31.0090 C   0  0  0  0  0  0  0  0  0  0  0  0
   38.1960   39.1690   32.2200 C   0  0  0  0  0  0  0  0  0  0  0  0
   42.2180   38.0610   30.8630 C   0  0  0  0  0  0  0  0  0  0  0  0
  1  3  1  0
  2  9  1  0
  4  5  1  0
  4  9  1  0
  6  2  1  0
  6  5  1  0
  7  8  1  0
  7  3  1  0
  7  4  1  0
 10  1  1  0
 10  8  1  0
M  END
$$$$

     RDKit          3D

 22 21  0  0  0  0  0  0  0  0999 V2000
   39.9270   41.8150   31.3250 C   0  0  0  0  0  0  0  0  0  0  0  0
   37.6160   29.2840   38.8000 N   0  0  0  0  0  0  0  0  0  0  0  0
   36.0880   29.5280   36.8040 C   0  0  0  0  0  0  0  0  0  0  0  0
   39.4220   36.7480   33.4410 C   0  0  0  0  0  0  0  0  0  0  0  0
   40.5800   39.3350   31.4620 C   0  0  0  0  0  0  0  0  0  0  0  0
   41.9040   37.7210   29.7300 O   0  0  0  0  0  0  0  0  0  0  0  0
   37.7750   31.8730   34.7220 C   0  0  0  0  0  0  0  0  0  0  0  0
   40.9270   38.1010   31.9040 C   0  0  0  0  0  0  0  0  0  0  0  0
   41.8830   36.7390   33.5770 N   0  0  0  0  0  0  0  0  0  0  0  0
   40.7210   37.5440   33.3140 C   0  0  0  0  0  0  0  0  0  0  0  0
   41.6820   37.2100   30.9430 C   0  0  0  0  0  0  0  0  0  0  0  0
   40.7090   38.5760   34.4410 C   0  0  0  0  0  0  0  0  0  0  0  0
   38.9600   31.6360   34.9090 O   0  0  0  0  0  0  0  0  0  0  0  0
   36.0800   30.1840   35.4320 C   0  0  0  0  0  0  0  0  0  0  0  0
   36.8210   30.8490   34.9460 O   0  0  0  0  0  0  0  0  0  0  0  0
   41.7500   35.9530   31.0620 O   0  0  0  0  0  0  0  0  0  0  0  0
   37.4860   33.2540   34.1220 C   0  0  0  0  0  0  0  0  0  0  0  0
   37.4450   29.1850   37.3470 C   0  0  0  0  0  0  0  0  0  0  0  0
   38.3550   37.3210   33.1160 O   0  0  0  0  0  0  0  0  0  0  0  0
   38.4990   34.3690   34.2390 C   0  0  0  0  0  0  0  0  0  0  0  0
   39.4550   35.4380   34.0650 C   0  0  0  0  0  0  0  0  0  0  0  0
   40.3850   40.6050   32.1270 C   0  0  0  0  0  0  0  0  0  0  0  0
  1 22  1  0
  3 18  1  0
  4 21  1  0
  5 22  2  3
  6 11  2  0
  7 13  2  0
  7 15  1  0
  8  5  1  0
  8 10  1  0
 10  4  1  0
 10  9  1  0
 10 12  1  0
 11 16  1  0
 11  8  1  0
 14  3  1  0
 15 14  1  0
 17 20  2  0
 17  7  1  0
 18  2  1  0
 19  4  2  0
 21 20  2  0
M  END
$$$$

     RDKit          3D

  8  7  0  0  0  0  0  0  0  0999 V2000
   34.4770   36.4800   32.0460 N   0  0  0  0  0  0  0  0  0  0  0  0
   38.9410   38.3720   31.4560 C   0  0  0  0  0  0  0  0  0  0  0  0
   37.9650   37.4090   31.9860 C   0  0  0  0  0  0  0  0  0  0  0  0
   36.5190   37.6370   31.6060 C   0  0  0  0  0  0  0  0  0  0  0  0
   40.7810   36.8430   31.7930 N   0  0  0  0  0  0  0  0  0  0  0  0
   40.3960   37.9940   31.4920 C   0  0  0  0  0  0  0  0  0  0  0  0
   35.5980   36.8380   32.2600 C   0  0  0  0  0  0  0  0  0  0  0  0
   41.3380   38.7930   30.9560 N   0  0  0  0  0  0  0  0  0  0  0  0
  1  7  2  0
  2  6  1  0
  2  3  1  0
  4  3  2  3
  4  7  1  0
  6  5  1  0
  8  6  2  0
M  END
$$$$

     RDKit          3D

  6  5  0  0  0  0  0  0  0  0999 V2000
   37.3970   38.0590   30.8430 C   0  0  0  0  0  0  0  0  0  0  0  0
   36.0870   36.1850   31.6140 O   0  0  0  0  0  0  0  0  0  0  0  0
   39.4400   36.7240   31.0890 C   0  0  0  0  0  0  0  0  0  0  0  0
   36.0110   37.5350   31.1620 C   0  0  0  0  0  0  0  0  0  0  0  0
   40.5620   38.0290   30.6990 S   0  0  0  0  0  0  0  0  0  0  0  0
   38.1930   36.9540   30.3580 C   0  0  0  0  0  0  0  0  0  0  0  0
  1  4  1  0
  4  2  1  0
  5  3  1  0
  6  1  1  0
  6  3  1  0
M  END
$$$$

     RDKit          3D

  1  0  0  0  0  0  0  0  0  0999 V2000
   90.0320   95.6360   28.7720 Br  0  0  0  0  0  0  0  0  0  0  0  0
M  END
$$$$

     RDKit          3D

 14 14  0  0  0  0  0  0  0  0999 V2000
   38.6600   39.6370   30.6510 O   0  0  0  0  0  0  0  0  0  0  0  0
   40.0720   37.5480   34.6910 C   0  0  0  0  0  0  0  0  0  0  0  0
   36.5830   32.7980   33.6560 C   0  0  0  0  0  0  0  0  0  0  0  0
   40.9750   37.5530   33.0580 S   0  0  0  0  0  0  0  0  0  0  0  0
   40.2650   40.8680   32.4520 S   0  0  0  0  0  0  0  0  0  0  0  0
   37.2510   33.9870   33.9260 N   0  0  0  0  0  0  0  0  0  0  0  0
   39.0600   35.1560   34.7620 C   0  0  0  0  0  0  0  0  0  0  0  0
   37.8870   37.0820   33.7460 C   0  0  0  0  0  0  0  0  0  0  0  0
   39.5670   38.0290   32.2990 C   0  0  0  0  0  0  0  0  0  0  0  0
   38.3810   33.9650   34.4610 C   0  0  0  0  0  0  0  0  0  0  0  0
   38.9600   32.8120   34.6610 O   0  0  0  0  0  0  0  0  0  0  0  0
   38.4840   38.2300   33.1200 O   0  0  0  0  0  0  0  0  0  0  0  0
   39.0140   36.5230   34.4310 C   0  0  0  0  0  0  0  0  0  0  0  0
   39.3620   39.2860   31.5330 C   0  0  0  0  0  0  0  0  0  0  0  0
  1 14  2  0
  3  6  1  0
  4  2  1  0
  6 10  1  0
  8 13  1  0
  9 14  1  0
  9  4  1  0
  9 12  1  0
 10 11  2  0
 10  7  1  0
 12  8  1  0
 13  2  1  0
 13  7  2  3
 14  5  1  0
M  END
$$$$

     RDKit          3D

 20 21  0  0  0  0  0  0  0  0999 V2000
   37.7900   35.6450   33.6400 C   0  0  0  0  0  0  0  0  0  0  0  0
   38.8000   32.0730   33.1870 C   0  0  0  0  0  0  0  0  0  0  0  0
   42.0490   39.1400   36.8330 C   0  0  0  0  0  0  0  0  0  0  0  0
   38.7630   30.4920   33.1880 Cl  0  0  0  0  0  0  0  0  0  0  0  0
   38.4790   34.4350   33.4870 C   0  0  0  0  0  0  0  0  0  0  0  0
   42.6580   39.7900   35.6610 C   0  0  0  0  0  0  0  0  0  0  0  0
   40.8160   38.8380   34.1680 C   0  0  0  0  0  0  0  0  0  0  0  0
   36.3930   35.7430   33.6170 C   0  0  0  0  0  0  0  0  0  0  0  0
   42.0660   41.0560   33.4480 C   0  0  0  0  0  0  0  0  0  0  0  0
   37.7810   33.1600   33.4760 C   0  0  0  0  0  0  0  0  0  0  0  0
   40.6750   40.9880   35.1880 O   0  0  0  0  0  0  0  0  0  0  0  0
   35.6080   32.1670   34.1180 O   0  0  0  0  0  0  0  0  0  0  0  0
   36.2940   33.2370   33.7480 C   0  0  0  0  0  0  0  0  0  0  0  0
   40.0460   32.8310   32.7920 C   0  0  0  0  0  0  0  0  0  0  0  0
   35.6520   34.5150   33.6720 C   0  0  0  0  0  0  0  0  0  0  0  0
   38.6290   36.8370   34.0410 C   0  0  0  0  0  0  0  0  0  0  0  0
   40.2430   38.8410   32.7910 N   0  0  0  0  0  0  0  0  0  0  0  0
   40.3140   37.1020   34.8340 S   0  0  0  0  0  0  0  0  0  0  0  0
   39.7400   34.1890   33.1950 N   0  0  0  0  0  0  0  0  0  0  0  0
   41.3420   40.2600   34.5570 C   0  0  0  0  0  0  0  0  0  0  0  0
  1 16  1  0
  2  4  1  0
  2 10  1  0
  5  1  2  0
  6  3  1  0
  7 17  1  0
  7 20  1  0
  7 18  1  0
  8  1  1  0
  8 15  2  0
 10  5  1  0
 10 13  2  0
 13 12  1  0
 14  2  1  0
 14 19  1  0
 15 13  1  0
 16 18  1  0
 19  5  1  0
 20  9  1  0
 20 11  1  0
 20  6  1  0
M  END
$$$$

     RDKit          3D

 10  9  0  0  0  0  0  0  0  0999 V2000
   42.0590   40.7390   32.6560 N   0  0  0  0  0  0  0  0  0  0  0  0
   43.5540   37.0240   30.5170 O   0  0  0  0  0  0  0  0  0  0  0  0
   43.2780   38.0040   32.8340 O   0  0  0  0  0  0  0  0  0  0  0  0
   40.7190   38.1620   29.5780 C   0  0  0  0  0  0  0  0  0  0  0  0
   40.5450   39.0630   31.6830 C   0  0  0  0  0  0  0  0  0  0  0  0
   42.5900   37.2380   31.7120 S   0  0  0  0  0  0  0  0  0  0  0  0
   42.0730   35.8750   32.2650 O   0  0  0  0  0  0  0  0  0  0  0  0
   41.5670   40.0840   31.6520 C   0  0  0  0  0  0  0  0  0  0  0  0
   41.1630   37.8580   30.8560 C   0  0  0  0  0  0  0  0  0  0  0  0
   39.3300   38.3700   29.4660 O   0  0  0  0  0  0  0  0  0  0  0  0
  2  6  1  0
  6  7  1  0
  6  3  1  0
  8  5  1  0
  8  1  2  0
  9  4  1  0
  9  5  1  0
  9  6  1  0
 10  4  1  0
M  END
$$$$

     RDKit          3D

 30 35  0  0  0  0  0  0  0  0999 V2000
   41.1510   40.0270   31.9560 C   0  0  0  0  0  0  0  0  0  0  0  0
   36.8020   32.1210   33.1620 N   0  0  0  0  0  0  0  0  0  0  0  0
   30.4940   33.2280   33.3250 C   0  0  0  0  0  0  0  0  0  0  0  0
   42.2750   40.7510   33.9260 O   0  0  0  0  0  0  0  0  0  0  0  0
   42.2310   37.4010   31.2040 S   0  0  0  0  0  0  0  0  0  0  0  0
   32.6070   32.3400   33.7380 C   0  0  0  0  0  0  0  0  0  0  0  0
   43.6800   37.1200   31.2290 O   0  0  0  0  0  0  0  0  0  0  0  0
   41.1670   38.9580   34.6030 C   0  0  0  0  0  0  0  0  0  0  0  0
   33.7800   33.1290   34.2430 C   0  0  0  0  0  0  0  0  0  0  0  0
   35.9860   33.1900   33.2170 C   0  0  0  0  0  0  0  0  0  0  0  0
   38.6590   33.4360   32.9530 N   0  0  0  0  0  0  0  0  0  0  0  0
   41.2550   39.5430   35.8740 C   0  0  0  0  0  0  0  0  0  0  0  0
   31.8560   33.5280   33.0520 C   0  0  0  0  0  0  0  0  0  0  0  0
   39.0600   31.1210   33.2580 C   0  0  0  0  0  0  0  0  0  0  0  0
   40.2520   37.5430   36.8770 C   0  0  0  0  0  0  0  0  0  0  0  0
   40.9500   38.7380   37.0130 C   0  0  0  0  0  0  0  0  0  0  0  0
   40.5050   37.0010   33.2670 C   0  0  0  0  0  0  0  0  0  0  0  0
   41.5760   36.7950   30.3080 O   0  0  0  0  0  0  0  0  0  0  0  0
   36.5260   34.4590   33.2560 C   0  0  0  0  0  0  0  0  0  0  0  0
   38.9070   36.0710   32.9790 S   0  0  0  0  0  0  0  0  0  0  0  0
   37.8320   34.6160   33.0120 C   0  0  0  0  0  0  0  0  0  0  0  0
   40.0640   36.9760   35.5960 C   0  0  0  0  0  0  0  0  0  0  0  0
   41.7590   39.6480   33.3430 C   0  0  0  0  0  0  0  0  0  0  0  0
   31.7200   31.3040   33.7000 C   0  0  0  0  0  0  0  0  0  0  0  0
   38.1120   32.2730   33.0770 C   0  0  0  0  0  0  0  0  0  0  0  0
   30.3380   32.0930   33.6730 C   0  0  0  0  0  0  0  0  0  0  0  0
   41.8770   38.7020   32.0730 C   0  0  0  0  0  0  0  0  0  0  0  0
   41.4780   37.2190   32.2840 N   0  0  0  0  0  0  0  0  0  0  0  0
   34.6890   33.0980   33.1680 O   0  0  0  0  0  0  0  0  0  0  0  0
   40.6110   37.6190   34.4940 C   0  0  0  0  0  0  0  0  0  0  0  0
  1 23  1  0
  2 10  2  0
  3 26  1  0
  5  7  2  0
  5 27  1  0
  6  9  1  0
  8 12  1  0
 10 19  1  0
 11 21  1  0
 11 25  2  0
 12 16  2  0
 13  3  1  0
 13  6  1  0
 15 16  1  0
 17 20  1  0
 17 30  1  0
 18  5  2  0
 20 21  1  0
 21 19  2  0
 22 15  2  0
 23  4  1  0
 23  8  1  0
 24  6  1  0
 25  2  1  0
 25 14  1  0
 26 24  1  0
 27  1  1  0
 27 28  1  0
 27 23  1  0
 28  5  1  0
 28 17  1  0
 29 10  1  0
 29  9  1  0
 30  8  2  0
 30 22  1  0
M  END
$$$$

     RDKit          3D

 27 28  0  0  0  0  0  0  0  0999 V2000
   36.9950   36.9160   32.5920 N   0  0  0  0  0  0  0  0  0  0  0  0
   31.0950   33.7530   35.6860 N   0  0  0  0  0  0  0  0  0  0  0  0
   38.9820   36.1800   32.0880 N   0  0  0  0  0  0  0  0  0  0  0  0
   42.1650   41.7460   32.3220 C   0  0  0  0  0  0  0  0  0  0  0  0
   40.1040   38.4890   31.9210 C   0  0  0  0  0  0  0  0  0  0  0  0
   43.5450   39.8660   33.0130 O   0  0  0  0  0  0  0  0  0  0  0  0
   40.7650   41.6820   31.6720 C   0  0  0  0  0  0  0  0  0  0  0  0
   42.7130   37.0470   32.0360 O   0  0  0  0  0  0  0  0  0  0  0  0
   33.3860   35.2020   33.7400 C   0  0  0  0  0  0  0  0  0  0  0  0
   40.1260   40.5450   32.2460 O   0  0  0  0  0  0  0  0  0  0  0  0
   33.6100   34.4030   33.1430 C   0  0  0  0  0  0  0  0  0  0  0  0
   37.1390   34.9050   32.5180 O   0  0  0  0  0  0  0  0  0  0  0  0
   42.2290   42.5270   33.6570 C   0  0  0  0  0  0  0  0  0  0  0  0
   40.9890   39.5440   32.7290 C   0  0  0  0  0  0  0  0  0  0  0  0
   32.4670   35.0610   35.2940 C   0  0  0  0  0  0  0  0  0  0  0  0
   32.0860   33.7590   34.8080 N   0  0  0  0  0  0  0  0  0  0  0  0
   41.6470   35.3040   31.1040 O   0  0  0  0  0  0  0  0  0  0  0  0
   35.8300   36.6240   32.6300 N   0  0  0  0  0  0  0  0  0  0  0  0
   40.1670   36.9600   32.1530 C   0  0  0  0  0  0  0  0  0  0  0  0
   34.5550   36.8890   33.0920 C   0  0  0  0  0  0  0  0  0  0  0  0
   32.0670   35.0220   34.1090 C   0  0  0  0  0  0  0  0  0  0  0  0
   40.3240   38.7680   30.5560 O   0  0  0  0  0  0  0  0  0  0  0  0
   42.5030   40.2730   32.6440 C   0  0  0  0  0  0  0  0  0  0  0  0
   37.7540   35.9280   32.4440 C   0  0  0  0  0  0  0  0  0  0  0  0
   41.5910   36.4010   31.6840 C   0  0  0  0  0  0  0  0  0  0  0  0
   40.1560   42.5020   30.5160 S   0  0  0  0  0  0  0  0  0  0  0  0
   34.1530   36.0690   34.1120 C   0  0  0  0  0  0  0  0  0  0  0  0
  1 18  1  0
  3 19  1  0
  3 24  1  0
  4 23  1  0
  4 13  1  0
  5 22  1  0
  5 19  1  0
  7 10  1  0
  7  4  1  0
  9 27  1  0
 10 14  1  0
 11  9  2  0
 14  5  1  0
 16 15  1  0
 16  2  1  0
 17 25  2  0
 18 20  1  0
 19 25  1  0
 20 27  1  0
 21  9  1  0
 21 16  1  0
 21 15  1  0
 23 14  1  0
 23  6  2  0
 24 12  2  0
 24  1  1  0
 25  8  1  0
 26  7  2  0
M  END
$$$$

     RDKit          3D

 12 11  0  0  0  0  0  0  0  0999 V2000
   35.6960   36.1710   33.2430 C   0  0  0  0  0  0  0  0  0  0  0  0
   39.1060   35.7480   34.0410 S   0  0  0  0  0  0  0  0  0  0  0  0
   42.2560   37.7710   33.4950 C   0  0  0  0  0  0  0  0  0  0  0  0
   34.7890   35.1450   33.4520 O   0  0  0  0  0  0  0  0  0  0  0  0
   41.8970   38.1840   34.8790 C   0  0  0  0  0  0  0  0  0  0  0  0
   38.0460   36.7110   33.0990 C   0  0  0  0  0  0  0  0  0  0  0  0
   40.0410   36.8960   34.3710 N   0  0  0  0  0  0  0  0  0  0  0  0
   38.4570   35.0960   35.1590 O   0  0  0  0  0  0  0  0  0  0  0  0
   37.2070   34.4990   32.5220 O   0  0  0  0  0  0  0  0  0  0  0  0
   36.9300   35.8190   32.7030 C   0  0  0  0  0  0  0  0  0  0  0  0
   40.6350   37.4860   35.3120 C   0  0  0  0  0  0  0  0  0  0  0  0
   39.7090   34.9560   32.9820 O   0  0  0  0  0  0  0  0  0  0  0  0
  1  4  1  0
  2  7  1  0
  2  8  2  0
  3  5  1  0
  5 11  1  0
  6  2  1  0
  7 11  1  0
 10  9  1  0
 10  6  1  0
 10  1  1  0
 12  2  2  0
M  END
$$$$

     RDKit          3D

 13 13  0  0  0  0  0  0  0  0999 V2000
   34.5760   36.4660   32.6960 C   0  0  0  0  0  0  0  0  0  0  0  0
   34.8380   35.0910   32.7830 C   0  0  0  0  0  0  0  0  0  0  0  0
   39.8120   35.9390   32.5550 O   0  0  0  0  0  0  0  0  0  0  0  0
   42.2760   36.7670   31.9140 O   0  0  0  0  0  0  0  0  0  0  0  0
   36.1040   34.6240   32.5530 C   0  0  0  0  0  0  0  0  0  0  0  0
   37.9600   37.9980   32.2340 C   0  0  0  0  0  0  0  0  0  0  0  0
   41.6470   37.8760   29.9950 N   0  0  0  0  0  0  0  0  0  0  0  0
   41.3720   37.1000   31.0950 C   0  0  0  0  0  0  0  0  0  0  0  0
   35.6750   37.3300   32.6370 C   0  0  0  0  0  0  0  0  0  0  0  0
   36.9550   36.8740   32.3740 C   0  0  0  0  0  0  0  0  0  0  0  0
   37.1610   35.4870   32.3210 C   0  0  0  0  0  0  0  0  0  0  0  0
   39.1620   38.1260   31.4640 C   0  0  0  0  0  0  0  0  0  0  0  0
   39.9230   36.7390   31.3570 C   0  0  0  0  0  0  0  0  0  0  0  0
  1  2  1  0
  5  2  2  0
  6 10  1  0
  7  8  1  0
  8 13  1  0
  8  4  2  0
  9  1  2  0
 10  9  1  0
 11 10  2  0
 11  5  1  0
 12  6  1  0
 13 12  1  0
 13  3  1  0
M  END
$$$$

     RDKit          3D

  8  7  0  0  0  0  0  0  0  0999 V2000
   37.7650   38.6340   30.0350 C   0  0  0  0  0  0  0  0  0  0  0  0
   41.7110   36.1670   31.0050 N   0  0  0  0  0  0  0  0  0  0  0  0
   39.8000   34.7190   31.3020 C   0  0  0  0  0  0  0  0  0  0  0  0
   37.5300   36.4430   30.6820 O   0  0  0  0  0  0  0  0  0  0  0  0
   40.4630   36.0560   30.9470 C   0  0  0  0  0  0  0  0  0  0  0  0
   40.6570   33.5080   31.2950 C   0  0  0  0  0  0  0  0  0  0  0  0
   38.5430   37.5260   30.4830 C   0  0  0  0  0  0  0  0  0  0  0  0
   39.6240   37.2770   30.9880 C   0  0  0  0  0  0  0  0  0  0  0  0
  5  8  1  0
  5  2  2  0
  5  3  1  0
  6  3  1  0
  7  1  1  0
  7  4  1  0
  7  8  1  0
M  END
$$$$

     RDKit          3D

 11 11  0  0  0  0  0  0  0  0999 V2000
   38.9040   39.3990   31.7730 C   0  0  0  0  0  0  0  0  0  0  0  0
   40.1800   34.1460   35.1380 C   0  0  0  0  0  0  0  0  0  0  0  0
   39.4680   39.5750   34.0750 C   0  0  0  0  0  0  0  0  0  0  0  0
   38.7220   38.0300   31.9720 C   0  0  0  0  0  0  0  0  0  0  0  0
   39.3960   40.0870   32.8050 N   0  0  0  0  0  0  0  0  0  0  0  0
   38.5760   40.1340   30.4690 C   0  0  0  0  0  0  0  0  0  0  0  0
   39.0400   35.9520   33.3320 C   0  0  0  0  0  0  0  0  0  0  0  0
   39.9070   35.4120   34.3680 O   0  0  0  0  0  0  0  0  0  0  0  0
   38.9920   37.4200   33.1860 C   0  0  0  0  0  0  0  0  0  0  0  0
   39.6870   34.0300   34.1000 C   0  0  0  0  0  0  0  0  0  0  0  0
   39.3470   38.2290   34.2500 C   0  0  0  0  0  0  0  0  0  0  0  0
  1  4  2  0
  1  5  1  0
  3 11  1  0
  4  9  1  0
  5  3  2  0
  6  1  1  0
  7  8  1  0
  9  7  1  0
  9 11  2  0
 10  8  1  0
 10  2  1  0
M  END
$$$$

     RDKit          3D

 20 22  0  0  0  0  0  0  0  0999 V2000
   35.2600   35.8770   33.6270 C   0  0  0  0  0  0  0  0  0  0  0  0
   39.3320   34.8990   32.5260 C   0  0  0  0  0  0  0  0  0  0  0  0
   38.4450   35.7600   33.4160 C   0  0  0  0  0  0  0  0  0  0  0  0
   38.0420   33.2510   34.0110 C   0  0  0  0  0  0  0  0  0  0  0  0
   33.0250   36.6350   33.1070 N   0  0  0  0  0  0  0  0  0  0  0  0
   39.8800   35.8010   31.4570 C   0  0  0  0  0  0  0  0  0  0  0  0
   35.4940   33.6580   34.6790 C   0  0  0  0  0  0  0  0  0  0  0  0
   40.7530   36.4020   32.3050 N   0  0  0  0  0  0  0  0  0  0  0  0
   33.2930   34.4770   34.2870 C   0  0  0  0  0  0  0  0  0  0  0  0
   42.6710   37.5220   31.7060 C   0  0  0  0  0  0  0  0  0  0  0  0
   36.0750   34.8100   34.0550 C   0  0  0  0  0  0  0  0  0  0  0  0
   42.1430   36.2360   32.0530 O   0  0  0  0  0  0  0  0  0  0  0  0
   39.8960   37.7620   34.1240 C   0  0  0  0  0  0  0  0  0  0  0  0
   33.8470   35.6750   33.6640 C   0  0  0  0  0  0  0  0  0  0  0  0
   41.9360   38.5900   32.4600 C   0  0  0  0  0  0  0  0  0  0  0  0
   40.5870   37.9530   32.7300 C   0  0  0  0  0  0  0  0  0  0  0  0
   39.1230   36.6670   34.3160 N   0  0  0  0  0  0  0  0  0  0  0  0
   37.6080   34.7470   34.1610 C   0  0  0  0  0  0  0  0  0  0  0  0
   34.1070   33.5270   34.7690 C   0  0  0  0  0  0  0  0  0  0  0  0
   40.1210   38.8270   35.1850 C   0  0  0  0  0  0  0  0  0  0  0  0
  1 14  2  0
  1 11  1  0
  2  3  1  0
  3 18  1  0
  3 17  1  0
  5 14  1  0
  6  2  1  0
  7 19  1  0
  8  6  1  0
  8 16  1  0
  9 19  2  0
 10 12  1  0
 10 15  1  0
 11 18  1  0
 11  7  2  0
 12  8  1  0
 13 17  1  0
 13 20  1  0
 14  9  1  0
 16 15  1  0
 16 13  1  0
 18  4  1  0
M  END
$$$$

     RDKit          3D

 21 21  0  0  0  0  0  0  0  0999 V2000
   41.0270   38.9270   33.1450 N   0  0  0  0  0  0  0  0  0  0  0  0
   42.0220   37.3340   30.5010 C   0  0  0  0  0  0  0  0  0  0  0  0
   37.9290   38.4320   31.7510 C   0  0  0  0  0  0  0  0  0  0  0  0
   42.8470   40.8770   34.6520 C   0  0  0  0  0  0  0  0  0  0  0  0
   42.1180   39.6190   36.5960 N   0  0  0  0  0  0  0  0  0  0  0  0
   38.6730   38.2880   33.0370 C   0  0  0  0  0  0  0  0  0  0  0  0
   43.3080   40.7430   33.5490 O   0  0  0  0  0  0  0  0  0  0  0  0
   40.3430   36.6060   32.9970 C   0  0  0  0  0  0  0  0  0  0  0  0
   38.5960   39.1490   30.8090 C   0  0  0  0  0  0  0  0  0  0  0  0
   36.1170   38.5820   30.3510 C   0  0  0  0  0  0  0  0  0  0  0  0
   41.1220   34.4810   31.6130 O   0  0  0  0  0  0  0  0  0  0  0  0
   36.6850   38.0830   31.4920 N   0  0  0  0  0  0  0  0  0  0  0  0
   41.0440   35.7220   31.9730 C   0  0  0  0  0  0  0  0  0  0  0  0
   41.6960   40.1210   35.2780 C   0  0  0  0  0  0  0  0  0  0  0  0
   40.8800   39.0250   34.6490 C   0  0  0  0  0  0  0  0  0  0  0  0
   36.7370   39.3010   29.4260 N   0  0  0  0  0  0  0  0  0  0  0  0
   43.3880   41.8060   35.4710 O   0  0  0  0  0  0  0  0  0  0  0  0
   38.0060   39.5860   29.6610 C   0  0  0  0  0  0  0  0  0  0  0  0
   40.0780   37.9910   32.6160 N   0  0  0  0  0  0  0  0  0  0  0  0
   34.7320   38.3060   30.1880 N   0  0  0  0  0  0  0  0  0  0  0  0
   42.2290   36.4280   31.5930 O   0  0  0  0  0  0  0  0  0  0  0  0
  1 15  1  0
  2 21  1  0
  3  6  1  0
  4 14  1  0
  4 17  1  0
  7  4  2  0
  9  3  2  0
 10 12  2  0
 11 13  2  0
 12  3  1  0
 13  8  1  0
 14  5  1  0
 15 14  1  0
 16 18  2  0
 16 10  1  0
 18  9  1  0
 19  8  1  0
 19  6  1  0
 19  1  1  0
 20 10  1  0
 21 13  1  0
M  END
$$$$
