
     RDKit          3D

 10 10  0  0  0  0  0  0  0  0999 V2000
   37.1650   35.9960   27.6030 O   0  0  0  0  0  0  0  0  0  0  0  0
   34.8010   35.7380   27.1100 C   0  0  0  0  0  0  0  0  0  0  0  0
   34.7260   34.8120   28.1420 C   0  0  0  0  0  0  0  0  0  0  0  0
   32.4540   34.4880   27.6550 C   0  0  0  0  0  0  0  0  0  0  0  0
   33.5250   34.2920   28.4770 C   0  0  0  0  0  0  0  0  0  0  0  0
   36.0980   36.3580   26.7820 C   0  0  0  0  0  0  0  0  0  0  0  0
   32.5250   35.2580   26.5870 C   0  0  0  0  0  0  0  0  0  0  0  0
   33.7740   36.0600   26.4680 N   0  0  0  0  0  0  0  0  0  0  0  0
   32.1210   35.5360   25.3240 O   0  0  0  0  0  0  0  0  0  0  0  0
   35.9050   34.4290   28.7150 O   0  0  0  0  0  0  0  0  0  0  0  0
  2  3  1  0
  3  5  1  0
  3 10  1  0
  4  5  2  0
  6  2  1  0
  6  1  1  0
  7  4  1  0
  8  7  1  0
  8  2  2  0
  9  7  2  0
M  END
$$$$

     RDKit          3D

  5  4  0  0  0  0  0  0  0  0999 V2000
   35.9740   31.3980   25.0740 C   0  0  0  0  0  0  0  0  0  0  0  0
   36.0610   31.7240   24.6300 O   0  0  0  0  0  0  0  0  0  0  0  0
   36.7260   30.1960   25.5840 O   0  0  0  0  0  0  0  0  0  0  0  0
   35.1490   33.5110   26.0210 O   0  0  0  0  0  0  0  0  0  0  0  0
   35.3070   32.2870   25.7100 C   0  0  0  0  0  0  0  0  0  0  0  0
  1  3  1  0
  1  5  1  0
  2  1  2  0
  5  4  2  0
M  END
$$$$

     RDKit          3D

 10  9  0  0  0  0  0  0  0  0999 V2000
   39.6280   32.7760   25.1210 O   0  0  0  0  0  0  0  0  0  0  0  0
   39.5960   36.8710   25.9710 N   0  0  0  0  0  0  0  0  0  0  0  0
   40.2790   34.9290   24.7800 C   0  0  0  0  0  0  0  0  0  0  0  0
   40.4090   37.4590   24.9830 C   0  0  0  0  0  0  0  0  0  0  0  0
   40.5450   33.5850   25.4100 C   0  0  0  0  0  0  0  0  0  0  0  0
   39.5580   37.8090   23.7670 C   0  0  0  0  0  0  0  0  0  0  0  0
   40.6220   33.5920   26.8320 O   0  0  0  0  0  0  0  0  0  0  0  0
   39.4530   39.2780   23.7940 N   0  0  0  0  0  0  0  0  0  0  0  0
   37.9060   35.2480   25.6880 O   0  0  0  0  0  0  0  0  0  0  0  0
   39.1840   35.5210   25.7640 C   0  0  0  0  0  0  0  0  0  0  0  0
  1  5  1  0
  3  5  1  0
  3 10  1  0
  4  2  1  0
  5  7  1  0
  6  8  1  0
  6  4  1  0
  9 10  2  0
 10  2  1  0
M  END
$$$$

     RDKit          3D

 10  9  0  0  0  0  0  0  0  0999 V2000
   38.3410   36.8230   24.8490 C   0  0  0  0  0  0  0  0  0  0  0  0
   37.4010   34.7620   27.3240 N   0  0  0  0  0  0  0  0  0  0  0  0
   38.1760   32.8510   28.5840 C   0  0  0  0  0  0  0  0  0  0  0  0
   40.5740   37.4640   23.8240 C   0  0  0  0  0  0  0  0  0  0  0  0
   37.0880   33.6830   27.9470 C   0  0  0  0  0  0  0  0  0  0  0  0
   37.6440   36.7750   26.1440 C   0  0  0  0  0  0  0  0  0  0  0  0
   35.9160   33.1700   27.7570 O   0  0  0  0  0  0  0  0  0  0  0  0
   35.3280   36.0010   26.7500 C   0  0  0  0  0  0  0  0  0  0  0  0
   36.7120   35.5990   26.3330 C   0  0  0  0  0  0  0  0  0  0  0  0
   39.3350   37.1380   24.3050 C   0  0  0  0  0  0  0  0  0  0  0  0
  1  6  1  0
  2  5  1  0
  4 10  1  0
  5  3  1  0
  6  9  1  0
  7  5  2  0
  9  8  1  0
  9  2  1  0
 10  1  1  0
M  END
$$$$

     RDKit          3D

  5  4  0  0  0  0  0  0  0  0999 V2000
   40.0130   37.0530   24.7610 O   0  0  0  0  0  0  0  0  0  0  0  0
   41.0800   34.1600   24.7000 C   0  0  0  0  0  0  0  0  0  0  0  0
   40.4390   34.9030   25.8740 C   0  0  0  0  0  0  0  0  0  0  0  0
   40.2700   34.2440   23.5480 O   0  0  0  0  0  0  0  0  0  0  0  0
   40.4840   36.2870   25.6820 C   0  0  0  0  0  0  0  0  0  0  0  0
  1  5  1  0
  2  3  1  0
  4  2  1  0
  5  3  1  0
M  END
$$$$

     RDKit          3D

  6  6  0  0  0  0  0  0  0  0999 V2000
   38.8430   33.7620   23.2900 C   0  0  0  0  0  0  0  0  0  0  0  0
   40.6600   36.2210   22.4790 C   0  0  0  0  0  0  0  0  0  0  0  0
   40.1270   34.2880   23.9550 C   0  0  0  0  0  0  0  0  0  0  0  0
   40.8680   35.3120   24.5140 O   0  0  0  0  0  0  0  0  0  0  0  0
   40.2730   33.2290   24.9240 O   0  0  0  0  0  0  0  0  0  0  0  0
   39.8080   35.8820   23.9490 C   0  0  0  0  0  0  0  0  0  0  0  0
  3  1  1  0
  3  4  1  0
  3  5  1  0
  6  2  1  0
  6  3  1  0
  6  4  1  0
M  END
$$$$

     RDKit          3D

 17 19  0  0  0  0  0  0  0  0999 V2000
   40.9850   34.1550   30.1690 O   0  0  0  0  0  0  0  0  0  0  0  0
   37.6340   33.5540   31.5930 C   0  0  0  0  0  0  0  0  0  0  0  0
   37.2900   36.3440   29.3820 O   0  0  0  0  0  0  0  0  0  0  0  0
   37.8390   30.5270   31.2670 O   0  0  0  0  0  0  0  0  0  0  0  0
   38.0370   31.3620   32.4250 C   0  0  0  0  0  0  0  0  0  0  0  0
   33.2480   34.8990   30.0450 C   0  0  0  0  0  0  0  0  0  0  0  0
   39.0620   33.2990   31.3750 C   0  0  0  0  0  0  0  0  0  0  0  0
   36.9570   32.4240   32.3680 C   0  0  0  0  0  0  0  0  0  0  0  0
   39.0410   35.1190   29.8020 N   0  0  0  0  0  0  0  0  0  0  0  0
   35.8520   32.6570   33.0460 O   0  0  0  0  0  0  0  0  0  0  0  0
   39.3510   32.0890   32.2130 C   0  0  0  0  0  0  0  0  0  0  0  0
   37.0590   34.6240   30.8230 N   0  0  0  0  0  0  0  0  0  0  0  0
   34.7470   34.5570   30.0260 C   0  0  0  0  0  0  0  0  0  0  0  0
   34.8810   33.7250   31.2150 C   0  0  0  0  0  0  0  0  0  0  0  0
   39.7310   34.1330   30.4680 C   0  0  0  0  0  0  0  0  0  0  0  0
   37.7630   35.3690   29.9210 C   0  0  0  0  0  0  0  0  0  0  0  0
   35.6950   35.0220   31.0940 C   0  0  0  0  0  0  0  0  0  0  0  0
  1 15  2  0
  2  8  1  0
  3 16  2  0
  5  4  1  0
  7  2  2  0
  7 11  1  0
  8  5  1  0
  8 10  1  0
  9 16  1  0
  9 15  1  0
 11  5  1  0
 12  2  1  0
 13  6  1  0
 13 17  1  0
 13 14  1  0
 15  7  1  0
 16 12  1  0
 17 12  1  0
 17 14  1  0
M  END
$$$$

     RDKit          3D

  8  7  0  0  0  0  0  0  0  0999 V2000
   40.2150   34.4820   26.9950 N   0  0  0  0  0  0  0  0  0  0  0  0
   40.7600   35.8180   23.7540 C   0  0  0  0  0  0  0  0  0  0  0  0
   38.9500   34.2770   25.1130 O   0  0  0  0  0  0  0  0  0  0  0  0
   40.3400   36.0570   25.0980 N   0  0  0  0  0  0  0  0  0  0  0  0
   39.1980   37.5680   22.9040 C   0  0  0  0  0  0  0  0  0  0  0  0
   40.5010   36.7440   22.7050 C   0  0  0  0  0  0  0  0  0  0  0  0
   38.8080   37.7140   24.2910 N   0  0  0  0  0  0  0  0  0  0  0  0
   40.2510   34.7390   25.6740 C   0  0  0  0  0  0  0  0  0  0  0  0
  2  4  1  0
  4  8  1  0
  5  7  1  0
  6  5  1  0
  6  2  1  0
  8  3  1  0
  8  1  1  0
M  END
$$$$

     RDKit          3D

 13 13  0  0  0  0  0  0  0  0999 V2000
   36.7910   37.0380   25.9080 C   0  0  0  0  0  0  0  0  0  0  0  0
   36.3440   34.9590   27.4220 C   0  0  0  0  0  0  0  0  0  0  0  0
   38.9460   36.9180   24.5000 C   0  0  0  0  0  0  0  0  0  0  0  0
   34.3590   33.3050   28.7550 O   0  0  0  0  0  0  0  0  0  0  0  0
   39.5270   36.2220   25.6440 C   0  0  0  0  0  0  0  0  0  0  0  0
   34.4450   34.5220   30.6770 O   0  0  0  0  0  0  0  0  0  0  0  0
   39.4800   36.7710   23.4060 O   0  0  0  0  0  0  0  0  0  0  0  0
   34.2650   34.6570   29.2850 S   0  0  0  0  0  0  0  0  0  0  0  0
   35.3470   35.5760   28.4390 C   0  0  0  0  0  0  0  0  0  0  0  0
   37.5080   37.4360   24.6190 C   0  0  0  0  0  0  0  0  0  0  0  0
   37.4200   36.0630   27.0340 C   0  0  0  0  0  0  0  0  0  0  0  0
   32.9290   35.4330   29.2180 N   0  0  0  0  0  0  0  0  0  0  0  0
   38.5540   35.3090   26.3570 C   0  0  0  0  0  0  0  0  0  0  0  0
  1 11  1  0
  2  9  1  0
  3 10  1  0
  3  5  1  0
  4  8  2  0
  5 13  1  0
  7  3  2  0
  8  6  2  0
  9  8  1  0
 10  1  1  0
 11  2  1  0
 12  8  1  0
 13 11  1  0
M  END
$$$$

     RDKit          3D

 10 10  0  0  0  0  0  0  0  0999 V2000
   40.4930   33.8530   26.2580 O   0  0  0  0  0  0  0  0  0  0  0  0
   38.9140   35.0350   24.6300 O   0  0  0  0  0  0  0  0  0  0  0  0
   41.4620   35.7590   24.8920 O   0  0  0  0  0  0  0  0  0  0  0  0
   40.4130   36.5880   25.5000 O   0  0  0  0  0  0  0  0  0  0  0  0
   40.2690   35.0700   24.6160 P   0  0  0  0  0  0  0  0  0  0  0  0
   40.5350   33.9410   23.7100 O   0  0  0  0  0  0  0  0  0  0  0  0
   38.5850   33.0890   28.3280 O   0  0  0  0  0  0  0  0  0  0  0  0
   39.6390   32.7680   27.8060 C   0  0  0  0  0  0  0  0  0  0  0  0
   40.2190   31.7070   27.8360 O   0  0  0  0  0  0  0  0  0  0  0  0
   40.3570   33.7890   27.0740 C   0  0  0  0  0  0  0  0  0  0  0  0
  1 10  1  0
  3  4  1  0
  5  2  1  0
  5  3  1  0
  5  4  1  0
  5  1  1  0
  6  5  1  0
  8  9  2  0
  8  7  1  0
 10  8  1  0
M  END
$$$$

     RDKit          3D

 17 16  0  0  0  0  0  0  0  0999 V2000
   34.9950   36.1300   30.0820 F   0  0  0  0  0  0  0  0  0  0  0  0
   37.3470   36.4960   31.0050 O   0  0  0  0  0  0  0  0  0  0  0  0
   40.2680   37.1340   26.5060 P   0  0  0  0  0  0  0  0  0  0  0  0
   40.5630   35.8490   27.7110 C   0  0  0  0  0  0  0  0  0  0  0  0
   41.0990   37.9180   25.4570 O   0  0  0  0  0  0  0  0  0  0  0  0
   37.6450   33.6790   30.7990 C   0  0  0  0  0  0  0  0  0  0  0  0
   35.4640   34.8030   29.9110 C   0  0  0  0  0  0  0  0  0  0  0  0
   41.6170   35.0350   27.0680 N   0  0  0  0  0  0  0  0  0  0  0  0
   39.7620   38.2970   27.3830 O   0  0  0  0  0  0  0  0  0  0  0  0
   36.1920   34.1460   31.0320 C   0  0  0  0  0  0  0  0  0  0  0  0
   40.8190   36.0540   29.1930 C   0  0  0  0  0  0  0  0  0  0  0  0
   39.9260   34.1990   30.5280 C   0  0  0  0  0  0  0  0  0  0  0  0
   39.3440   36.3760   25.5670 O   0  0  0  0  0  0  0  0  0  0  0  0
   40.0900   33.0980   31.0650 O   0  0  0  0  0  0  0  0  0  0  0  0
   40.9660   34.7810   29.8730 N   0  0  0  0  0  0  0  0  0  0  0  0
   37.9990   35.7550   30.3950 C   0  0  0  0  0  0  0  0  0  0  0  0
   38.6970   34.7270   30.5190 N   0  0  0  0  0  0  0  0  0  0  0  0
  3  9  1  0
  3  4  1  0
  4  8  1  0
  4 11  1  0
  5  3  2  0
  6 10  1  0
  7  1  1  0
  7 10  1  0
 11 15  1  0
 12 14  2  0
 13  3  1  0
 15 12  1  0
 16 17  1  0
 16  2  2  0
 17 12  1  0
 17  6  1  0
M  END
$$$$

     RDKit          3D

  7  6  0  0  0  0  0  0  0  0999 V2000
   39.0460   34.6840   23.2320 O   0  0  0  0  0  0  0  0  0  0  0  0
   41.0240   35.2100   25.9470 C   0  0  0  0  0  0  0  0  0  0  0  0
   39.0220   36.9520   24.3750 C   0  0  0  0  0  0  0  0  0  0  0  0
   39.5530   34.5820   24.3560 C   0  0  0  0  0  0  0  0  0  0  0  0
   42.1440   35.8450   26.4680 O   0  0  0  0  0  0  0  0  0  0  0  0
   40.0140   35.9000   24.9890 C   0  0  0  0  0  0  0  0  0  0  0  0
   39.4150   33.5310   25.0360 O   0  0  0  0  0  0  0  0  0  0  0  0
  1  4  2  0
  2  5  1  0
  4  6  1  0
  4  7  1  0
  6  3  1  0
  6  2  1  0
M  END
$$$$

     RDKit          3D

  6  6  0  0  0  0  0  0  0  0999 V2000
   37.3430   35.0640   24.9070 O   0  0  0  0  0  0  0  0  0  0  0  0
   38.0640   34.4360   23.4800 O   0  0  0  0  0  0  0  0  0  0  0  0
   36.9040   35.3290   23.7180 C   0  0  0  0  0  0  0  0  0  0  0  0
   37.1230   36.3740   22.6280 C   0  0  0  0  0  0  0  0  0  0  0  0
   36.1960   37.1900   22.2420 O   0  0  0  0  0  0  0  0  0  0  0  0
   35.4340   35.4160   23.8560 N   0  0  0  0  0  0  0  0  0  0  0  0
  2  3  1  0
  2  1  1  0
  3  6  1  0
  3  1  1  0
  4  3  1  0
  5  4  1  0
M  END
$$$$

     RDKit          3D

 13 14  0  0  0  0  0  0  0  0999 V2000
   40.3880   36.0290   29.4770 C   0  0  0  0  0  0  0  0  0  0  0  0
   38.8080   34.8900   30.8930 C   0  0  0  0  0  0  0  0  0  0  0  0
   37.9440   36.2540   28.9690 C   0  0  0  0  0  0  0  0  0  0  0  0
   39.4240   33.6490   30.8500 N   0  0  0  0  0  0  0  0  0  0  0  0
   37.2980   34.6860   31.1420 C   0  0  0  0  0  0  0  0  0  0  0  0
   38.3100   37.1600   27.9150 C   0  0  0  0  0  0  0  0  0  0  0  0
   36.7150   32.9100   29.6580 O   0  0  0  0  0  0  0  0  0  0  0  0
   38.5840   32.7360   31.2760 C   0  0  0  0  0  0  0  0  0  0  0  0
   40.5490   37.2860   28.7080 C   0  0  0  0  0  0  0  0  0  0  0  0
   37.2510   33.2230   30.9700 C   0  0  0  0  0  0  0  0  0  0  0  0
   39.5950   37.6320   27.7300 C   0  0  0  0  0  0  0  0  0  0  0  0
   38.9280   35.7420   29.7090 C   0  0  0  0  0  0  0  0  0  0  0  0
   38.9240   31.7220   31.8310 O   0  0  0  0  0  0  0  0  0  0  0  0
  1 12  1  0
  2 12  1  0
  2  5  1  0
  3 12  2  0
  4  2  1  0
  4  8  1  0
  6  3  1  0
  8 13  2  0
  9  1  1  0
 10  7  1  0
 10  5  1  0
 10  8  1  0
 11  6  2  0
 11  9  1  0
M  END
$$$$

     RDKit          3D

 14 15  0  0  0  0  0  0  0  0999 V2000
   40.0420   34.9820   27.5140 C   0  0  0  0  0  0  0  0  0  0  0  0
   39.1140   35.6820   26.7490 C   0  0  0  0  0  0  0  0  0  0  0  0
   34.8630   35.6330   28.4700 C   0  0  0  0  0  0  0  0  0  0  0  0
   37.1010   36.7850   26.4890 N   0  0  0  0  0  0  0  0  0  0  0  0
   37.7990   35.8910   27.1860 C   0  0  0  0  0  0  0  0  0  0  0  0
   41.3880   34.6610   25.6370 C   0  0  0  0  0  0  0  0  0  0  0  0
   41.1530   34.4870   27.0330 N   0  0  0  0  0  0  0  0  0  0  0  0
   34.7950   36.3860   27.3220 C   0  0  0  0  0  0  0  0  0  0  0  0
   40.5560   35.3720   24.9030 C   0  0  0  0  0  0  0  0  0  0  0  0
   37.2050   35.1660   28.2250 C   0  0  0  0  0  0  0  0  0  0  0  0
   33.6290   35.6020   29.3940 C   0  0  0  0  0  0  0  0  0  0  0  0
   36.0540   34.9580   28.8490 C   0  0  0  0  0  0  0  0  0  0  0  0
   35.6940   36.9000   26.6360 C   0  0  0  0  0  0  0  0  0  0  0  0
   39.4800   36.0510   25.4680 C   0  0  0  0  0  0  0  0  0  0  0  0
  2  5  1  0
  2  1  2  0
  3 12  1  0
  3 11  1  0
  4 13  2  0
  4  5  1  0
  5 10  2  0
  6  7  2  0
  7  1  1  0
  8  3  2  0
  9 14  2  0
  9  6  1  0
 10 12  1  0
 13  8  1  0
 14  2  1  0
M  END
$$$$

     RDKit          3D

 29 32  0  0  0  0  0  0  0  0999 V2000
   38.9930   36.9710   25.5490 N   0  0  0  0  0  0  0  0  0  0  0  0
   36.0110   28.9140   32.0930 C   0  0  0  0  0  0  0  0  0  0  0  0
   35.1350   30.9260   33.3410 O   0  0  0  0  0  0  0  0  0  0  0  0
   38.1490   34.0630   30.2090 C   0  0  0  0  0  0  0  0  0  0  0  0
   42.3280   37.6410   26.4270 C   0  0  0  0  0  0  0  0  0  0  0  0
   43.6630   38.3560   25.9870 C   0  0  0  0  0  0  0  0  0  0  0  0
   44.3770   39.1500   24.8910 C   0  0  0  0  0  0  0  0  0  0  0  0
   36.6370   28.3120   31.0030 C   0  0  0  0  0  0  0  0  0  0  0  0
   39.9330   37.7670   26.3900 C   0  0  0  0  0  0  0  0  0  0  0  0
   37.9960   31.3690   28.7170 I   0  0  0  0  0  0  0  0  0  0  0  0
   35.9020   28.2750   34.3870 O   0  0  0  0  0  0  0  0  0  0  0  0
   38.7080   36.2310   29.1140 C   0  0  0  0  0  0  0  0  0  0  0  0
   35.9420   30.2700   32.1030 C   0  0  0  0  0  0  0  0  0  0  0  0
   39.2190   35.9110   27.7030 C   0  0  0  0  0  0  0  0  0  0  0  0
   40.3950   36.8920   27.5340 C   0  0  0  0  0  0  0  0  0  0  0  0
   38.1870   36.2510   26.5910 C   0  0  0  0  0  0  0  0  0  0  0  0
   36.8650   32.5040   31.6920 C   0  0  0  0  0  0  0  0  0  0  0  0
   37.1460   30.4620   30.1350 C   0  0  0  0  0  0  0  0  0  0  0  0
   41.3150   38.1270   25.9260 C   0  0  0  0  0  0  0  0  0  0  0  0
   41.3490   39.3140   25.1740 O   0  0  0  0  0  0  0  0  0  0  0  0
   43.7720   39.4920   27.0500 C   0  0  0  0  0  0  0  0  0  0  0  0
   35.1730   28.3880   33.1550 C   0  0  0  0  0  0  0  0  0  0  0  0
   36.5940   35.6580   30.3980 C   0  0  0  0  0  0  0  0  0  0  0  0
   37.1100   29.1040   29.9710 C   0  0  0  0  0  0  0  0  0  0  0  0
   36.6570   31.1060   31.2770 C   0  0  0  0  0  0  0  0  0  0  0  0
   37.2390   33.6210   31.1320 N   0  0  0  0  0  0  0  0  0  0  0  0
   36.3380   34.6800   31.2560 C   0  0  0  0  0  0  0  0  0  0  0  0
   41.6360   36.3700   27.0090 O   0  0  0  0  0  0  0  0  0  0  0  0
   37.7370   35.2950   29.7790 C   0  0  0  0  0  0  0  0  0  0  0  0
  1 16  1  0
  2 13  1  0
  2 22  1  0
  4 26  1  0
  5  6  1  0
  5 28  1  0
  6 21  1  0
  7  6  1  0
  8  2  2  0
  9  1  1  0
  9 15  1  0
 10 18  1  0
 12 29  1  0
 13  3  1  0
 14 12  1  0
 15 28  1  0
 15 14  1  0
 16 14  1  0
 18 25  1  0
 19 20  1  0
 19  9  1  0
 19  5  1  0
 22 11  1  0
 23 27  2  0
 24 18  2  0
 24  8  1  0
 25 17  1  0
 25 13  2  0
 26 27  1  0
 26 17  1  0
 29  4  2  0
 29 23  1  0
M  END
$$$$

     RDKit          3D

 19 20  0  0  0  0  0  0  0  0999 V2000
   42.6930   36.6920   25.1720 C   0  0  0  0  0  0  0  0  0  0  0  0
   37.7420   35.7810   31.7320 O   0  0  0  0  0  0  0  0  0  0  0  0
   32.9450   35.0850   33.1660 C   0  0  0  0  0  0  0  0  0  0  0  0
   37.0380   35.4240   30.8000 C   0  0  0  0  0  0  0  0  0  0  0  0
   42.5200   36.4100   27.5750 C   0  0  0  0  0  0  0  0  0  0  0  0
   34.0610   34.6970   32.1500 C   0  0  0  0  0  0  0  0  0  0  0  0
   35.0020   35.6920   31.9140 O   0  0  0  0  0  0  0  0  0  0  0  0
   42.5530   36.9950   28.8670 N   0  0  0  0  0  0  0  0  0  0  0  0
   39.0420   34.9100   29.5010 C   0  0  0  0  0  0  0  0  0  0  0  0
   37.5940   34.6300   29.7960 C   0  0  0  0  0  0  0  0  0  0  0  0
   35.6050   35.7750   30.6460 C   0  0  0  0  0  0  0  0  0  0  0  0
   40.6300   36.2270   28.4320 C   0  0  0  0  0  0  0  0  0  0  0  0
   41.9770   35.8280   26.2300 C   0  0  0  0  0  0  0  0  0  0  0  0
   41.2930   35.8480   27.4570 C   0  0  0  0  0  0  0  0  0  0  0  0
   34.0350   33.6590   31.5410 O   0  0  0  0  0  0  0  0  0  0  0  0
   39.1970   35.8530   28.5860 N   0  0  0  0  0  0  0  0  0  0  0  0
   41.2840   36.9720   29.3520 C   0  0  0  0  0  0  0  0  0  0  0  0
   41.9250   37.8760   25.0630 N   0  0  0  0  0  0  0  0  0  0  0  0
   33.1980   36.1990   34.0460 C   0  0  0  0  0  0  0  0  0  0  0  0
  3 19  1  0
  4  2  2  0
  5  8  1  0
  6  3  1  0
  7  6  1  0
  8 17  1  0
  9 10  1  0
 10  4  1  0
 11  4  1  0
 11  7  1  0
 12 16  1  0
 12 17  2  0
 13  1  1  0
 13 14  1  0
 13  5  1  0
 14  5  1  0
 14 12  1  0
 15  6  2  0
 16  9  1  0
 18  1  1  0
M  END
$$$$

     RDKit          3D

 10 10  0  0  0  0  0  0  0  0999 V2000
   37.3820   35.8550   27.3110 N   0  0  0  0  0  0  0  0  0  0  0  0
   40.1990   34.2430   26.3530 C   0  0  0  0  0  0  0  0  0  0  0  0
   37.8480   34.9300   26.5810 C   0  0  0  0  0  0  0  0  0  0  0  0
   35.1020   35.3200   26.4390 O   0  0  0  0  0  0  0  0  0  0  0  0
   34.1210   37.1420   25.6540 N   0  0  0  0  0  0  0  0  0  0  0  0
   37.6700   36.3320   25.9950 C   0  0  0  0  0  0  0  0  0  0  0  0
   35.2260   36.3750   25.8450 C   0  0  0  0  0  0  0  0  0  0  0  0
   38.9960   34.1970   27.2820 C   0  0  0  0  0  0  0  0  0  0  0  0
   36.4570   37.0400   25.3160 C   0  0  0  0  0  0  0  0  0  0  0  0
   40.6050   35.5930   26.5460 O   0  0  0  0  0  0  0  0  0  0  0  0
  2 10  1  0
  2  8  1  0
  3  8  1  0
  3  1  1  0
  5  7  1  0
  6  9  1  0
  6  3  1  0
  6  1  1  0
  7  4  2  0
  9  7  1  0
M  END
$$$$

     RDKit          3D

  8  7  0  0  0  0  0  0  0  0999 V2000
   40.4130   33.3300   22.9640 O   0  0  0  0  0  0  0  0  0  0  0  0
   40.6620   33.4330   24.7500 O   0  0  0  0  0  0  0  0  0  0  0  0
   39.4960   35.3600   23.8090 C   0  0  0  0  0  0  0  0  0  0  0  0
   40.4530   36.5570   24.2310 C   0  0  0  0  0  0  0  0  0  0  0  0
   38.8820   36.0180   22.7070 C   0  0  0  0  0  0  0  0  0  0  0  0
   40.1440   34.0150   23.8340 C   0  0  0  0  0  0  0  0  0  0  0  0
   41.6420   36.1020   24.7740 O   0  0  0  0  0  0  0  0  0  0  0  0
   39.6210   37.1830   25.3700 C   0  0  0  0  0  0  0  0  0  0  0  0
  1  6  2  0
  3  5  1  0
  3  6  1  0
  3  4  1  0
  4  7  1  0
  4  8  1  0
  6  2  1  0
M  END
$$$$

     RDKit          3D

 13 14  0  0  0  0  0  0  0  0999 V2000
   38.3730   33.7100   28.0670 O   0  0  0  0  0  0  0  0  0  0  0  0
   39.4160   33.9520   27.1670 C   0  0  0  0  0  0  0  0  0  0  0  0
   33.7600   35.0250   29.6920 Cl  0  0  0  0  0  0  0  0  0  0  0  0
   39.8070   35.4400   27.0210 C   0  0  0  0  0  0  0  0  0  0  0  0
   36.3700   34.3930   29.1330 C   0  0  0  0  0  0  0  0  0  0  0  0
   35.5770   36.5350   28.5200 C   0  0  0  0  0  0  0  0  0  0  0  0
   34.6130   37.3310   28.0360 O   0  0  0  0  0  0  0  0  0  0  0  0
   37.5260   34.6540   28.4460 C   0  0  0  0  0  0  0  0  0  0  0  0
   38.9870   36.3810   27.6480 O   0  0  0  0  0  0  0  0  0  0  0  0
   37.7940   35.9740   28.0830 C   0  0  0  0  0  0  0  0  0  0  0  0
   40.5770   36.1960   26.0880 O   0  0  0  0  0  0  0  0  0  0  0  0
   36.8020   36.9270   28.1390 C   0  0  0  0  0  0  0  0  0  0  0  0
   35.3470   35.3290   29.1220 C   0  0  0  0  0  0  0  0  0  0  0  0
  1  8  1  0
  2  1  1  0
  4  2  1  0
  4  9  1  0
  6 13  2  0
  7  6  1  0
  8  5  2  0
  9 10  1  0
 10 12  2  0
 10  8  1  0
 11  4  2  0
 12  6  1  0
 13  5  1  0
 13  3  1  0
M  END
$$$$
