
     RDKit          3D

  8  7  0  0  0  0  0  0  0  0999 V2000
   42.7380   43.8810   31.0160 O   0  0  0  0  0  0  0  0  0  0  0  0
   40.7810   44.8250   30.3730 O   0  0  0  0  0  0  0  0  0  0  0  0
   39.6070   40.5730   30.8070 C   0  0  0  0  0  0  0  0  0  0  0  0
   40.7440   41.4550   30.2110 S   0  0  0  0  0  0  0  0  0  0  0  0
   40.6620   43.1780   32.0810 C   0  0  0  0  0  0  0  0  0  0  0  0
   41.4680   41.9460   31.7160 C   0  0  0  0  0  0  0  0  0  0  0  0
   42.2970   41.8940   33.0200 N   0  0  0  0  0  0  0  0  0  0  0  0
   41.2740   44.3010   31.6840 C   0  0  0  0  0  0  0  0  0  0  0  0
  1  8  1  0
  2  8  1  0
  4  3  1  0
  4  6  1  0
  6  5  1  0
  6  7  1  0
  8  5  1  0
M  END
$$$$

     RDKit          3D

 11 11  0  0  0  0  0  0  0  0999 V2000
   38.5640   42.8070   29.0080 O   0  0  0  0  0  0  0  0  0  0  0  0
   35.9820   40.4050   28.9340 C   0  0  0  0  0  0  0  0  0  0  0  0
   38.7510   39.2990   29.3040 N   0  0  0  0  0  0  0  0  0  0  0  0
   37.1720   40.9900   28.2810 C   0  0  0  0  0  0  0  0  0  0  0  0
   40.8080   41.7650   27.4590 S   0  0  0  0  0  0  0  0  0  0  0  0
   38.3670   41.5420   26.5710 C   0  0  0  0  0  0  0  0  0  0  0  0
   37.7540   42.2880   28.0520 C   0  0  0  0  0  0  0  0  0  0  0  0
   35.9410   39.2120   28.2210 O   0  0  0  0  0  0  0  0  0  0  0  0
   39.3740   40.6950   27.2560 C   0  0  0  0  0  0  0  0  0  0  0  0
   40.0620   39.5030   26.6140 C   0  0  0  0  0  0  0  0  0  0  0  0
   38.4730   40.2100   28.3740 C   0  0  0  0  0  0  0  0  0  0  0  0
  4 11  1  0
  4  2  1  0
  6  9  1  0
  6  7  1  0
  7  4  1  0
  7  1  1  0
  8  2  1  0
  9 10  1  0
  9  5  1  0
  9 11  1  0
 11  3  2  0
M  END
$$$$

     RDKit          3D

 14 15  0  0  0  0  0  0  0  0999 V2000
   38.0030   38.6390   30.8280 C   0  0  0  0  0  0  0  0  0  0  0  0
   37.9080   40.0330   31.3930 C   0  0  0  0  0  0  0  0  0  0  0  0
   39.0490   40.4670   32.0230 C   0  0  0  0  0  0  0  0  0  0  0  0
   34.7800   37.6410   31.9780 C   0  0  0  0  0  0  0  0  0  0  0  0
   39.9650   41.3590   31.6970 C   0  0  0  0  0  0  0  0  0  0  0  0
   36.6660   36.5090   31.4190 C   0  0  0  0  0  0  0  0  0  0  0  0
   35.7850   38.5360   31.8100 C   0  0  0  0  0  0  0  0  0  0  0  0
   36.8970   37.8400   31.4180 N   0  0  0  0  0  0  0  0  0  0  0  0
   36.1170   34.2870   31.0960 C   0  0  0  0  0  0  0  0  0  0  0  0
   36.6350   32.9060   30.6430 C   0  0  0  0  0  0  0  0  0  0  0  0
   34.8330   35.0490   31.4650 C   0  0  0  0  0  0  0  0  0  0  0  0
   36.9400   41.0500   30.7930 C   0  0  0  0  0  0  0  0  0  0  0  0
   35.2890   36.3780   31.6550 C   0  0  0  0  0  0  0  0  0  0  0  0
   37.3400   35.2230   31.2240 C   0  0  0  0  0  0  0  0  0  0  0  0
  1  2  1  0
  1  8  1  0
  2 12  1  0
  2  3  1  0
  5  3  2  0
  6 13  1  0
  7  4  2  0
  8  6  1  0
  8  7  1  0
  9 14  1  0
  9 11  2  0
 10  9  1  0
 13 11  1  0
 13  4  1  0
 14  6  2  0
M  END
$$$$

     RDKit          3D

 12 12  0  0  0  0  0  0  0  0999 V2000
   38.7210   36.8390   29.7290 O   0  0  0  0  0  0  0  0  0  0  0  0
   40.4690   42.8280   29.4430 N   0  0  0  0  0  0  0  0  0  0  0  0
   40.4990   38.4780   30.0130 C   0  0  0  0  0  0  0  0  0  0  0  0
   40.8620   39.8010   29.6570 C   0  0  0  0  0  0  0  0  0  0  0  0
   39.1620   38.3480   28.1200 C   0  0  0  0  0  0  0  0  0  0  0  0
   39.4930   37.8440   29.3380 C   0  0  0  0  0  0  0  0  0  0  0  0
   39.8180   41.8030   28.7390 O   0  0  0  0  0  0  0  0  0  0  0  0
   39.2320   39.6520   28.0780 C   0  0  0  0  0  0  0  0  0  0  0  0
   40.1220   40.4230   28.7170 C   0  0  0  0  0  0  0  0  0  0  0  0
   37.7780   35.8430   29.8160 C   0  0  0  0  0  0  0  0  0  0  0  0
   40.0760   42.7220   30.9390 C   0  0  0  0  0  0  0  0  0  0  0  0
   40.1110   44.1970   29.0310 C   0  0  0  0  0  0  0  0  0  0  0  0
  1 10  1  0
  2 11  1  0
  4  3  2  0
  5  6  1  0
  6  1  1  0
  6  3  1  0
  7  2  1  0
  8  5  1  0
  8  9  2  0
  9  7  1  0
  9  4  1  0
 12  2  1  0
M  END
$$$$

     RDKit          3D

 13 13  0  0  0  0  0  0  0  0999 V2000
   40.2800   39.0960   27.0250 O   0  0  0  0  0  0  0  0  0  0  0  0
   40.1120   37.9910   29.4800 O   0  0  0  0  0  0  0  0  0  0  0  0
   36.9130   40.8530   29.1990 C   0  0  0  0  0  0  0  0  0  0  0  0
   39.2500   39.0620   29.2740 C   0  0  0  0  0  0  0  0  0  0  0  0
   37.6730   37.5670   30.3620 N   0  0  0  0  0  0  0  0  0  0  0  0
   39.2090   39.4830   27.8560 C   0  0  0  0  0  0  0  0  0  0  0  0
   38.3620   40.5150   27.4560 O   0  0  0  0  0  0  0  0  0  0  0  0
   37.8570   38.5970   29.5950 C   0  0  0  0  0  0  0  0  0  0  0  0
   36.9240   39.4630   29.2580 O   0  0  0  0  0  0  0  0  0  0  0  0
   38.1960   41.3780   28.5770 C   0  0  0  0  0  0  0  0  0  0  0  0
   38.0850   42.6720   27.9860 O   0  0  0  0  0  0  0  0  0  0  0  0
   41.0930   38.2900   30.4970 C   0  0  0  0  0  0  0  0  0  0  0  0
   35.6210   41.1070   28.5980 O   0  0  0  0  0  0  0  0  0  0  0  0
  1  6  2  0
  2 12  1  0
  3 13  1  0
  3  9  1  0
  4  2  1  0
  4  8  1  0
  6  4  1  0
  7  6  1  0
  7 10  1  0
  8  5  2  0
  9  8  1  0
 10 11  1  0
 10  3  1  0
M  END
$$$$

     RDKit          3D

 16 15  0  0  0  0  0  0  0  0999 V2000
   36.2390   35.0430   29.9230 C   0  0  0  0  0  0  0  0  0  0  0  0
   32.4240   30.0430   30.1070 C   0  0  0  0  0  0  0  0  0  0  0  0
   39.7770   43.7380   30.2520 C   0  0  0  0  0  0  0  0  0  0  0  0
   40.3960   40.6990   30.4790 S   0  0  0  0  0  0  0  0  0  0  0  0
   40.8310   43.1050   31.0280 N   0  0  0  0  0  0  0  0  0  0  0  0
   32.8620   31.5310   30.0020 C   0  0  0  0  0  0  0  0  0  0  0  0
   31.8240   29.4530   28.7750 C   0  0  0  0  0  0  0  0  0  0  0  0
   34.5320   33.2100   30.8570 C   0  0  0  0  0  0  0  0  0  0  0  0
   34.6180   31.6220   30.5110 C   0  0  0  0  0  0  0  0  0  0  0  0
   39.2620   39.0970   30.9410 C   0  0  0  0  0  0  0  0  0  0  0  0
   37.4860   37.5270   30.0830 C   0  0  0  0  0  0  0  0  0  0  0  0
   38.9600   37.8930   30.0410 C   0  0  0  0  0  0  0  0  0  0  0  0
   41.1100   42.3980   30.4890 C   0  0  0  0  0  0  0  0  0  0  0  0
   35.8770   33.9260   30.9390 C   0  0  0  0  0  0  0  0  0  0  0  0
   37.2180   36.0650   30.4780 C   0  0  0  0  0  0  0  0  0  0  0  0
   40.8750   43.2990   32.2860 N   0  0  0  0  0  0  0  0  0  0  0  0
  1 15  1  0
  1 14  1  0
  3  5  1  0
  4 13  1  0
  4 10  1  0
  5 16  1  0
  6  2  1  0
  6  9  1  0
  7  2  1  0
  8 14  1  0
  9  8  1  0
 11 15  1  0
 12 11  1  0
 12 10  1  0
 13  5  1  0
M  END
$$$$

     RDKit          3D

  6  5  0  0  0  0  0  0  0  0999 V2000
   41.1360   42.0220   29.3900 C   0  0  0  0  0  0  0  0  0  0  0  0
   41.2120   40.8960   30.3240 N   0  0  0  0  0  0  0  0  0  0  0  0
   40.2940   42.5580   27.0810 C   0  0  0  0  0  0  0  0  0  0  0  0
   42.0640   41.1130   27.1250 C   0  0  0  0  0  0  0  0  0  0  0  0
   41.0830   41.2970   28.0020 N   0  0  0  0  0  0  0  0  0  0  0  0
   40.0390   42.1750   25.3560 C   0  0  0  0  0  0  0  0  0  0  0  0
  1  2  1  0
  3  5  1  0
  4  5  1  0
  5  1  1  0
  6  3  1  0
M  END
$$$$

     RDKit          3D

 13 12  0  0  0  0  0  0  0  0999 V2000
   39.9510   43.6270   28.7100 O   0  0  0  0  0  0  0  0  0  0  0  0
   40.2080   41.8810   30.2180 C   0  0  0  0  0  0  0  0  0  0  0  0
   39.5250   39.8450   28.8130 C   0  0  0  0  0  0  0  0  0  0  0  0
   39.1520   40.3590   27.4990 O   0  0  0  0  0  0  0  0  0  0  0  0
   40.8640   41.5950   31.5320 C   0  0  0  0  0  0  0  0  0  0  0  0
   42.3250   41.8810   27.6580 C   0  0  0  0  0  0  0  0  0  0  0  0
   38.3310   43.6490   30.4670 O   0  0  0  0  0  0  0  0  0  0  0  0
   41.4810   39.7960   26.6560 N   0  0  0  0  0  0  0  0  0  0  0  0
   39.7200   43.5190   29.9670 S   0  0  0  0  0  0  0  0  0  0  0  0
   40.5350   40.9080   29.0410 C   0  0  0  0  0  0  0  0  0  0  0  0
   40.5700   44.4190   30.7750 O   0  0  0  0  0  0  0  0  0  0  0  0
   41.9030   40.6250   31.3470 O   0  0  0  0  0  0  0  0  0  0  0  0
   41.5260   40.6330   27.8310 C   0  0  0  0  0  0  0  0  0  0  0  0
  1  9  1  0
  2  5  1  0
  3 10  1  0
  4  3  1  0
  6 13  1  0
  8 13  1  0
  9  2  1  0
  9  7  1  0
  9 11  1  0
 10  2  1  0
 12  5  1  0
 13 10  2  3
M  END
$$$$

     RDKit          3D

 14 14  0  0  0  0  0  0  0  0999 V2000
   35.5520   37.0560   31.6980 C   0  0  0  0  0  0  0  0  0  0  0  0
   39.4320   39.1900   29.7820 C   0  0  0  0  0  0  0  0  0  0  0  0
   34.9240   35.6820   31.8280 C   0  0  0  0  0  0  0  0  0  0  0  0
   35.4740   37.8360   32.7460 O   0  0  0  0  0  0  0  0  0  0  0  0
   38.6000   41.8770   30.3570 C   0  0  0  0  0  0  0  0  0  0  0  0
   36.6790   37.2170   30.6900 C   0  0  0  0  0  0  0  0  0  0  0  0
   37.5470   41.2950   30.9040 N   0  0  0  0  0  0  0  0  0  0  0  0
   39.8690   41.5790   30.0820 C   0  0  0  0  0  0  0  0  0  0  0  0
   40.0830   40.4860   29.2580 C   0  0  0  0  0  0  0  0  0  0  0  0
   38.4290   39.0970   30.8870 C   0  0  0  0  0  0  0  0  0  0  0  0
   41.2290   39.9590   28.5840 O   0  0  0  0  0  0  0  0  0  0  0  0
   41.4720   40.1150   27.3730 C   0  0  0  0  0  0  0  0  0  0  0  0
   38.0180   37.6430   31.2120 C   0  0  0  0  0  0  0  0  0  0  0  0
   37.3830   40.0510   31.1110 N   0  0  0  0  0  0  0  0  0  0  0  0
  1  3  1  0
  1  4  1  0
  2 10  1  0
  5  7  1  0
  6 13  1  0
  6  1  1  0
  7 14  2  0
  8  5  2  0
  9  2  2  0
  9  8  1  0
 10 14  1  0
 10 13  1  0
 11  9  1  0
 12 11  1  0
M  END
$$$$

     RDKit          3D

  6  5  0  0  0  0  0  0  0  0999 V2000
   42.0420   41.8130   30.6970 C   0  0  0  0  0  0  0  0  0  0  0  0
   41.5930   44.4160   31.0060 O   0  0  0  0  0  0  0  0  0  0  0  0
   41.3340   42.2180   32.0330 C   0  0  0  0  0  0  0  0  0  0  0  0
   41.7720   43.5970   32.2900 C   0  0  0  0  0  0  0  0  0  0  0  0
   39.8580   42.0370   31.8540 C   0  0  0  0  0  0  0  0  0  0  0  0
   42.6640   44.1540   33.0320 O   0  0  0  0  0  0  0  0  0  0  0  0
  1  3  1  0
  2  4  2  0
  3  4  1  0
  4  6  1  0
  5  3  1  0
M  END
$$$$

     RDKit          3D

 11 10  0  0  0  0  0  0  0  0999 V2000
   38.5620   41.1020   29.6170 C   0  0  0  0  0  0  0  0  0  0  0  0
   39.1780   38.7440   27.7890 O   0  0  0  0  0  0  0  0  0  0  0  0
   37.1820   43.2750   29.3670 O   0  0  0  0  0  0  0  0  0  0  0  0
   40.5340   42.5310   30.6520 C   0  0  0  0  0  0  0  0  0  0  0  0
   38.1300   42.5050   30.0460 C   0  0  0  0  0  0  0  0  0  0  0  0
   41.5530   42.6090   29.5880 O   0  0  0  0  0  0  0  0  0  0  0  0
   39.2190   39.9740   27.4830 C   0  0  0  0  0  0  0  0  0  0  0  0
   39.7690   39.7970   26.2730 O   0  0  0  0  0  0  0  0  0  0  0  0
   39.3970   43.1980   30.1290 O   0  0  0  0  0  0  0  0  0  0  0  0
   38.4220   41.9980   27.3620 N   0  0  0  0  0  0  0  0  0  0  0  0
   39.1670   41.0760   28.2110 C   0  0  0  0  0  0  0  0  0  0  0  0
  1  5  1  0
  5  3  1  0
  5  9  1  0
  6  4  1  0
  7  2  1  0
  7 11  1  0
  8  7  2  0
  9  4  1  0
 11 10  1  0
 11  1  1  0
M  END
$$$$

     RDKit          3D

 15 15  0  0  0  0  0  0  0  0999 V2000
   39.4010   40.6100   29.0040 C   0  0  0  0  0  0  0  0  0  0  0  0
   38.2850   39.7500   29.7300 C   0  0  0  0  0  0  0  0  0  0  0  0
   36.9640   38.4480   31.0570 N   0  0  0  0  0  0  0  0  0  0  0  0
   36.6710   35.0580   29.9360 C   0  0  0  0  0  0  0  0  0  0  0  0
   37.5300   37.3820   30.4530 C   0  0  0  0  0  0  0  0  0  0  0  0
   38.5500   38.1000   29.3890 S   0  0  0  0  0  0  0  0  0  0  0  0
   35.9330   33.0530   31.2900 C   0  0  0  0  0  0  0  0  0  0  0  0
   37.1730   36.1510   30.5910 C   0  0  0  0  0  0  0  0  0  0  0  0
   41.4040   40.5060   26.2670 C   0  0  0  0  0  0  0  0  0  0  0  0
   34.2550   34.7700   30.2940 N   0  0  0  0  0  0  0  0  0  0  0  0
   39.7850   39.7380   27.7620 C   0  0  0  0  0  0  0  0  0  0  0  0
   36.5900   40.6640   31.7870 N   0  0  0  0  0  0  0  0  0  0  0  0
   39.9470   40.4920   26.4560 C   0  0  0  0  0  0  0  0  0  0  0  0
   35.6200   34.3040   30.5000 C   0  0  0  0  0  0  0  0  0  0  0  0
   37.2490   39.7600   30.8270 C   0  0  0  0  0  0  0  0  0  0  0  0
  1  2  1  0
  2 15  2  0
  4 14  1  0
  4  8  1  0
  5  8  1  0
  5  3  2  0
  6  2  1  0
  6  5  1  0
  9 13  1  0
 10 14  1  0
 11  1  1  0
 13 11  1  0
 14  7  1  0
 15  3  1  0
 15 12  1  0
M  END
$$$$

     RDKit          3D

 16 18  0  0  0  0  0  0  0  0999 V2000
   39.2400   41.5490   30.3120 N   0  0  0  0  0  0  0  0  0  0  0  0
   37.7700   39.6030   30.6080 C   0  0  0  0  0  0  0  0  0  0  0  0
   41.3160   39.7570   27.8480 C   0  0  0  0  0  0  0  0  0  0  0  0
   40.7580   40.8700   28.6890 C   0  0  0  0  0  0  0  0  0  0  0  0
   41.7250   41.5430   29.5270 O   0  0  0  0  0  0  0  0  0  0  0  0
   36.0940   37.5570   33.4100 N   0  0  0  0  0  0  0  0  0  0  0  0
   40.8450   38.5920   27.8480 O   0  0  0  0  0  0  0  0  0  0  0  0
   35.3350   37.4260   32.1710 O   0  0  0  0  0  0  0  0  0  0  0  0
   39.7140   40.3870   29.6580 C   0  0  0  0  0  0  0  0  0  0  0  0
   36.7960   40.5990   30.0190 C   0  0  0  0  0  0  0  0  0  0  0  0
   35.6300   40.1660   30.6210 C   0  0  0  0  0  0  0  0  0  0  0  0
   35.8990   39.6780   31.8160 N   0  0  0  0  0  0  0  0  0  0  0  0
   42.3770   40.1050   27.2680 O   0  0  0  0  0  0  0  0  0  0  0  0
   37.5970   38.5980   31.6630 C   0  0  0  0  0  0  0  0  0  0  0  0
   38.9180   40.4190   30.9450 C   0  0  0  0  0  0  0  0  0  0  0  0
   36.2270   38.3900   32.2150 C   0  0  0  0  0  0  0  0  0  0  0  0
  2 10  1  0
  2 15  1  0
  2 14  1  0
  3  7  1  0
  3  4  1  0
  4  5  1  0
  8 16  1  0
  8  6  1  0
  9  4  1  0
  9  1  1  0
  9 15  1  0
 10 11  1  0
 11 12  1  0
 12 16  1  0
 13  3  2  0
 15  1  1  0
 16 14  1  0
 16  6  1  0
M  END
$$$$

     RDKit          3D

  7  6  0  0  0  0  0  0  0  0999 V2000
   40.4900   43.9810   31.9200 C   0  0  0  0  0  0  0  0  0  0  0  0
   39.5710   40.5130   31.5380 C   0  0  0  0  0  0  0  0  0  0  0  0
   40.1910   39.3230   31.0850 O   0  0  0  0  0  0  0  0  0  0  0  0
   40.0580   42.6360   31.4880 C   0  0  0  0  0  0  0  0  0  0  0  0
   40.4350   44.5700   33.0980 O   0  0  0  0  0  0  0  0  0  0  0  0
   40.6750   44.7810   31.0020 O   0  0  0  0  0  0  0  0  0  0  0  0
   40.2190   41.7110   30.8300 C   0  0  0  0  0  0  0  0  0  0  0  0
  1  5  1  0
  3  2  1  0
  4  1  1  0
  6  1  2  0
  7  4  1  0
  7  2  1  0
M  END
$$$$

     RDKit          3D

 12 12  0  0  0  0  0  0  0  0999 V2000
   41.2790   39.6930   28.8740 C   0  0  0  0  0  0  0  0  0  0  0  0
   39.1960   43.3360   27.7230 O   0  0  0  0  0  0  0  0  0  0  0  0
   41.2280   41.8780   30.8370 C   0  0  0  0  0  0  0  0  0  0  0  0
   38.9830   38.9980   29.3030 C   0  0  0  0  0  0  0  0  0  0  0  0
   40.3570   40.6830   30.8210 C   0  0  0  0  0  0  0  0  0  0  0  0
   36.8290   40.0120   29.3160 C   0  0  0  0  0  0  0  0  0  0  0  0
   37.6320   38.9140   29.2130 C   0  0  0  0  0  0  0  0  0  0  0  0
   37.3690   41.3030   29.0840 C   0  0  0  0  0  0  0  0  0  0  0  0
   39.7570   40.2740   29.5040 C   0  0  0  0  0  0  0  0  0  0  0  0
   38.7590   41.4440   29.2030 N   0  0  0  0  0  0  0  0  0  0  0  0
   39.1990   42.8600   29.0510 C   0  0  0  0  0  0  0  0  0  0  0  0
   39.6090   37.8770   29.3030 O   0  0  0  0  0  0  0  0  0  0  0  0
  2 11  1  0
  4 12  1  0
  4  9  1  0
  5  3  1  0
  7  4  2  0
  7  6  1  0
  8 10  1  0
  8  6  1  0
  9  1  1  0
  9  5  1  0
 10  9  1  0
 11 10  1  0
M  END
$$$$

     RDKit          3D

 12 12  0  0  0  0  0  0  0  0999 V2000
   40.1140   41.9760   29.1510 C   0  0  0  0  0  0  0  0  0  0  0  0
   39.8940   40.7060   28.3560 C   0  0  0  0  0  0  0  0  0  0  0  0
   39.4710   41.7310   30.3590 N   0  0  0  0  0  0  0  0  0  0  0  0
   41.7470   43.7780   29.5950 C   0  0  0  0  0  0  0  0  0  0  0  0
   41.0620   40.1820   27.6780 N   0  0  0  0  0  0  0  0  0  0  0  0
   38.9240   38.3900   29.0430 C   0  0  0  0  0  0  0  0  0  0  0  0
   38.9350   40.4890   30.4370 C   0  0  0  0  0  0  0  0  0  0  0  0
   38.4760   36.1280   29.5360 C   0  0  0  0  0  0  0  0  0  0  0  0
   39.3240   39.7830   29.3340 C   0  0  0  0  0  0  0  0  0  0  0  0
   40.6880   43.1950   28.5930 O   0  0  0  0  0  0  0  0  0  0  0  0
   39.3660   37.0830   29.1460 C   0  0  0  0  0  0  0  0  0  0  0  0
   37.6150   35.5700   30.0780 N   0  0  0  0  0  0  0  0  0  0  0  0
  1  3  2  0
  2  5  1  0
  2  1  1  0
  2  9  1  0
  3  7  1  0
  6 11  1  0
  8 12  3  0
  9  6  1  0
  9  7  1  0
 10  1  1  0
 10  4  1  0
 11  8  1  0
M  END
$$$$

     RDKit          3D

 11 12  0  0  0  0  0  0  0  0999 V2000
   35.4300   36.0620   33.1770 C   0  0  0  0  0  0  0  0  0  0  0  0
   35.2900   37.8070   31.3810 C   0  0  0  0  0  0  0  0  0  0  0  0
   39.5680   39.0590   29.2340 N   0  0  0  0  0  0  0  0  0  0  0  0
   36.9030   36.4630   33.2680 C   0  0  0  0  0  0  0  0  0  0  0  0
   36.7720   37.8500   31.2210 C   0  0  0  0  0  0  0  0  0  0  0  0
   37.2730   37.2960   32.3230 C   0  0  0  0  0  0  0  0  0  0  0  0
   34.8020   36.6620   32.1590 C   0  0  0  0  0  0  0  0  0  0  0  0
   37.0720   38.7110   29.8900 C   0  0  0  0  0  0  0  0  0  0  0  0
   34.6140   34.6570   34.4780 I   0  0  0  0  0  0  0  0  0  0  0  0
   38.5230   38.9270   29.4300 C   0  0  0  0  0  0  0  0  0  0  0  0
   37.7680   38.1670   31.7450 O   0  0  0  0  0  0  0  0  0  0  0  0
  1  4  1  0
  1  9  1  0
  2  7  1  0
  3 10  3  0
  5  8  1  0
  5  2  1  0
  5 11  1  0
  5  6  1  0
  6  4  1  0
  7  1  2  0
 10  8  1  0
 11  6  1  0
M  END
$$$$

     RDKit          3D

 17 19  0  0  0  0  0  0  0  0999 V2000
   38.9300   42.0250   31.9700 C   0  0  0  0  0  0  0  0  0  0  0  0
   36.8310   40.3010   31.4880 N   0  0  0  0  0  0  0  0  0  0  0  0
   40.8730   43.4430   31.8340 O   0  0  0  0  0  0  0  0  0  0  0  0
   32.4620   36.8120   31.1130 C   0  0  0  0  0  0  0  0  0  0  0  0
   33.9040   36.7720   31.3840 N   0  0  0  0  0  0  0  0  0  0  0  0
   35.8710   35.4320   30.8500 C   0  0  0  0  0  0  0  0  0  0  0  0
   38.0970   36.8380   30.2950 S   0  0  0  0  0  0  0  0  0  0  0  0
   34.5100   35.5120   31.2320 N   0  0  0  0  0  0  0  0  0  0  0  0
   36.0020   37.8930   31.0800 C   0  0  0  0  0  0  0  0  0  0  0  0
   40.1580   42.6450   32.3250 C   0  0  0  0  0  0  0  0  0  0  0  0
   40.4770   42.4480   33.6250 O   0  0  0  0  0  0  0  0  0  0  0  0
   39.0820   40.6230   32.2430 N   0  0  0  0  0  0  0  0  0  0  0  0
   36.5610   36.6340   30.7310 C   0  0  0  0  0  0  0  0  0  0  0  0
   37.0070   39.0350   31.0460 C   0  0  0  0  0  0  0  0  0  0  0  0
   34.6290   37.9810   31.3600 C   0  0  0  0  0  0  0  0  0  0  0  0
   38.2650   38.3820   30.5410 C   0  0  0  0  0  0  0  0  0  0  0  0
   37.9260   41.2010   31.5940 C   0  0  0  0  0  0  0  0  0  0  0  0
  1 12  1  0
  1 10  1  0
  3 10  2  0
  4  5  1  0
  6  8  1  0
  7 16  1  0
  7 13  1  0
  8  5  1  0
  9 15  2  0
 10 11  1  0
 13  6  2  0
 13  9  1  0
 14  9  1  0
 14  2  1  0
 15  5  1  0
 16 14  2  0
 17  2  1  0
 17  1  1  0
 17 12  1  0
M  END
$$$$

     RDKit          3D

 16 18  0  0  0  0  0  0  0  0999 V2000
   39.4200   40.3700   27.1430 C   0  0  0  0  0  0  0  0  0  0  0  0
   40.7530   43.7880   27.2670 C   0  0  0  0  0  0  0  0  0  0  0  0
   41.0380   42.2980   28.0410 C   0  0  0  0  0  0  0  0  0  0  0  0
   42.2280   44.0200   27.3220 O   0  0  0  0  0  0  0  0  0  0  0  0
   40.3020   41.0240   28.0840 C   0  0  0  0  0  0  0  0  0  0  0  0
   35.8820   39.1870   31.8490 O   0  0  0  0  0  0  0  0  0  0  0  0
   37.5490   40.2500   28.6800 C   0  0  0  0  0  0  0  0  0  0  0  0
   38.4970   42.7220   28.8630 C   0  0  0  0  0  0  0  0  0  0  0  0
   36.4320   39.9200   30.9630 C   0  0  0  0  0  0  0  0  0  0  0  0
   36.7490   42.1370   30.1460 N   0  0  0  0  0  0  0  0  0  0  0  0
   37.6100   41.6480   29.2290 N   0  0  0  0  0  0  0  0  0  0  0  0
   37.2400   39.3420   29.8630 C   0  0  0  0  0  0  0  0  0  0  0  0
   35.9880   41.3470   30.8730 C   0  0  0  0  0  0  0  0  0  0  0  0
   39.9310   42.1860   28.9620 C   0  0  0  0  0  0  0  0  0  0  0  0
   39.0680   40.8450   25.9530 O   0  0  0  0  0  0  0  0  0  0  0  0
   38.6260   39.5680   27.8680 N   0  0  0  0  0  0  0  0  0  0  0  0
  1 16  1  0
  2  4  1  0
  3  2  1  0
  3  5  1  0
  3 14  1  0
  5  1  1  0
  5 14  1  0
  7 11  1  0
  7 12  1  0
  9  6  2  0
 10 13  1  0
 11  8  1  0
 11 10  1  0
 12  9  1  0
 13  9  1  0
 14  8  1  0
 15  1  2  0
 16  7  1  0
M  END
$$$$

     RDKit          3D

  6  5  0  0  0  0  0  0  0  0999 V2000
   40.5130   41.4570   29.9180 C   0  0  0  0  0  0  0  0  0  0  0  0
   39.2960   42.2820   29.6630 C   0  0  0  0  0  0  0  0  0  0  0  0
   41.8170   42.3640   29.3780 C   0  0  0  0  0  0  0  0  0  0  0  0
   40.7700   40.3500   29.0840 N   0  0  0  0  0  0  0  0  0  0  0  0
   40.7440   41.3470   31.3960 C   0  0  0  0  0  0  0  0  0  0  0  0
   39.5820   39.4680   28.8740 C   0  0  0  0  0  0  0  0  0  0  0  0
  1  5  1  0
  2  1  1  0
  3  1  1  0
  4  1  1  0
  6  4  1  0
M  END
$$$$
