
     RDKit          3D

 11 11  0  0  0  0  0  0  0  0999 V2000
   39.1330   35.8230   31.3720 C   0  0  0  0  0  0  0  0  0  0  0  0
   37.6010   37.7790   30.9090 C   0  0  0  0  0  0  0  0  0  0  0  0
   38.9620   34.6380   32.0630 C   0  0  0  0  0  0  0  0  0  0  0  0
   39.8750   38.3560   30.0780 O   0  0  0  0  0  0  0  0  0  0  0  0
   37.9450   36.4970   31.4850 C   0  0  0  0  0  0  0  0  0  0  0  0
   37.7070   34.6850   32.6110 C   0  0  0  0  0  0  0  0  0  0  0  0
   34.9450   34.4470   33.2380 C   0  0  0  0  0  0  0  0  0  0  0  0
   35.4850   35.7290   32.6030 C   0  0  0  0  0  0  0  0  0  0  0  0
   38.2990   39.8400   29.9700 O   0  0  0  0  0  0  0  0  0  0  0  0
   36.9440   35.6920   32.2280 C   0  0  0  0  0  0  0  0  0  0  0  0
   38.6540   38.6820   30.2540 C   0  0  0  0  0  0  0  0  0  0  0  0
  1  5  2  0
  1  3  1  0
  2  5  1  0
  3  6  1  0
  4 11  1  0
  5 10  1  0
  8  7  1  0
  9 11  2  0
 10  8  1  0
 10  6  2  0
 11  2  1  0
M  END
$$$$

     RDKit          3D

 11 10  0  0  0  0  0  0  0  0999 V2000
   40.8920   38.9150   32.2300 O   0  0  0  0  0  0  0  0  0  0  0  0
   39.1150   38.8240   29.4870 C   0  0  0  0  0  0  0  0  0  0  0  0
   38.1400   38.3080   30.5140 C   0  0  0  0  0  0  0  0  0  0  0  0
   40.3730   38.1340   31.4770 C   0  0  0  0  0  0  0  0  0  0  0  0
   36.9730   35.1730   31.7780 S   0  0  0  0  0  0  0  0  0  0  0  0
   39.2680   36.0700   31.1460 C   0  0  0  0  0  0  0  0  0  0  0  0
   38.5210   39.5640   28.4350 O   0  0  0  0  0  0  0  0  0  0  0  0
   38.4750   34.9680   31.7860 C   0  0  0  0  0  0  0  0  0  0  0  0
   38.9670   37.5040   31.4920 C   0  0  0  0  0  0  0  0  0  0  0  0
   40.6300   35.8470   31.6550 N   0  0  0  0  0  0  0  0  0  0  0  0
   38.4430   37.6530   32.8270 O   0  0  0  0  0  0  0  0  0  0  0  0
  2  3  1  0
  3  9  1  0
  4  9  1  0
  4  1  2  0
  5  8  1  0
  6  9  1  0
  6 10  1  0
  6  8  1  0
  7  2  1  0
  9 11  1  0
M  END
$$$$

     RDKit          3D

 29 31  0  0  0  0  0  0  0  0999 V2000
   42.2400   35.3790   30.5080 F   0  0  0  0  0  0  0  0  0  0  0  0
   41.0060   39.2500   28.5350 C   0  0  0  0  0  0  0  0  0  0  0  0
   32.4120   33.2440   35.9120 C   0  0  0  0  0  0  0  0  0  0  0  0
   40.5250   36.5690   31.5170 C   0  0  0  0  0  0  0  0  0  0  0  0
   41.9980   38.9480   29.3910 C   0  0  0  0  0  0  0  0  0  0  0  0
   30.6320   35.6140   35.5570 C   0  0  0  0  0  0  0  0  0  0  0  0
   42.9000   38.0140   31.4640 C   0  0  0  0  0  0  0  0  0  0  0  0
   42.2880   37.6470   30.1280 C   0  0  0  0  0  0  0  0  0  0  0  0
   41.5200   41.5740   28.4640 C   0  0  0  0  0  0  0  0  0  0  0  0
   37.3480   36.6220   31.7630 C   0  0  0  0  0  0  0  0  0  0  0  0
   42.5890   42.3440   30.5480 O   0  0  0  0  0  0  0  0  0  0  0  0
   43.9790   39.2350   31.1590 S   0  0  0  0  0  0  0  0  0  0  0  0
   42.9440   40.0310   29.8940 C   0  0  0  0  0  0  0  0  0  0  0  0
   41.4010   36.5060   30.3090 C   0  0  0  0  0  0  0  0  0  0  0  0
   42.3630   41.3860   29.5570 C   0  0  0  0  0  0  0  0  0  0  0  0
   36.6770   34.7990   33.1200 C   0  0  0  0  0  0  0  0  0  0  0  0
   38.2640   37.2590   31.1210 O   0  0  0  0  0  0  0  0  0  0  0  0
   31.6460   32.4900   33.6580 O   0  0  0  0  0  0  0  0  0  0  0  0
   31.9020   33.5910   34.5340 C   0  0  0  0  0  0  0  0  0  0  0  0
   35.2970   36.0520   32.4630 C   0  0  0  0  0  0  0  0  0  0  0  0
   37.6620   35.4430   32.4100 O   0  0  0  0  0  0  0  0  0  0  0  0
   36.0190   36.9630   31.7680 C   0  0  0  0  0  0  0  0  0  0  0  0
   34.2120   34.0330   33.2770 C   0  0  0  0  0  0  0  0  0  0  0  0
   29.4580   33.3800   35.0700 C   0  0  0  0  0  0  0  0  0  0  0  0
   39.5520   37.7130   31.2270 C   0  0  0  0  0  0  0  0  0  0  0  0
   35.3160   35.0030   32.9450 C   0  0  0  0  0  0  0  0  0  0  0  0
   32.9350   34.4290   33.8840 N   0  0  0  0  0  0  0  0  0  0  0  0
   30.5920   34.3860   34.6870 C   0  0  0  0  0  0  0  0  0  0  0  0
   40.9480   40.5230   27.8710 C   0  0  0  0  0  0  0  0  0  0  0  0
  2  5  1  0
  5 13  2  0
  5  8  1  0
  8 14  1  0
  8  7  1  0
  9 15  2  0
 10 17  1  0
 10 22  1  0
 10 21  1  0
 12  7  1  0
 13 12  1  0
 14  1  1  0
 14  4  1  0
 15 13  1  0
 15 11  1  0
 17 25  1  0
 18 19  1  0
 19 28  1  0
 19  3  1  0
 20 26  1  0
 21 16  1  0
 22 20  1  0
 23 27  2  3
 25  4  1  0
 26 16  1  0
 26 23  1  0
 27 19  1  0
 28 24  1  0
 28  6  1  0
 29  9  1  0
 29  2  2  0
M  END
$$$$

     RDKit          3D

 23 23  0  0  0  0  0  0  0  0999 V2000
   38.7530   34.4980   31.7770 C   0  0  0  0  0  0  0  0  0  0  0  0
   35.2800   35.9870   32.8690 C   0  0  0  0  0  0  0  0  0  0  0  0
   42.4980   38.0040   28.8910 C   0  0  0  0  0  0  0  0  0  0  0  0
   42.5720   39.5490   28.9770 C   0  0  0  0  0  0  0  0  0  0  0  0
   41.8830   36.1080   30.0900 C   0  0  0  0  0  0  0  0  0  0  0  0
   31.5190   35.5620   34.6120 S   0  0  0  0  0  0  0  0  0  0  0  0
   32.9610   35.0400   33.6240 C   0  0  0  0  0  0  0  0  0  0  0  0
   40.6760   35.3880   30.5390 N   0  0  0  0  0  0  0  0  0  0  0  0
   40.2520   39.2020   29.9690 C   0  0  0  0  0  0  0  0  0  0  0  0
   39.8570   35.5360   31.7740 C   0  0  0  0  0  0  0  0  0  0  0  0
   41.9710   37.4640   30.1190 N   0  0  0  0  0  0  0  0  0  0  0  0
   33.8180   36.2830   33.2510 C   0  0  0  0  0  0  0  0  0  0  0  0
   36.3460   33.9000   33.6970 O   0  0  0  0  0  0  0  0  0  0  0  0
   30.2660   34.8590   34.4670 O   0  0  0  0  0  0  0  0  0  0  0  0
   41.2370   40.0550   29.1970 C   0  0  0  0  0  0  0  0  0  0  0  0
   43.7820   39.7840   29.9420 C   0  0  0  0  0  0  0  0  0  0  0  0
   33.8060   33.9210   33.7100 O   0  0  0  0  0  0  0  0  0  0  0  0
   41.0350   38.3200   30.9410 C   0  0  0  0  0  0  0  0  0  0  0  0
   36.5430   35.0840   33.0370 C   0  0  0  0  0  0  0  0  0  0  0  0
   37.2870   34.8570   31.7050 C   0  0  0  0  0  0  0  0  0  0  0  0
   31.9690   35.4660   36.0230 O   0  0  0  0  0  0  0  0  0  0  0  0
   31.0150   36.6660   34.0330 O   0  0  0  0  0  0  0  0  0  0  0  0
   42.8450   35.4650   29.6000 O   0  0  0  0  0  0  0  0  0  0  0  0
  2 19  1  0
  2 12  1  0
  3  4  1  0
  3 11  1  0
  4 15  1  0
  4 16  1  0
  5 11  1  0
  5  8  1  0
  6 21  1  0
  7 17  2  0
  7  6  1  0
  8 10  1  0
  9 18  1  0
 10  1  1  0
 11 18  1  0
 12  7  1  0
 14  6  1  0
 15  9  1  0
 19 13  1  0
 20  1  1  0
 20 19  1  0
 22  6  1  0
 23  5  2  0
M  END
$$$$

     RDKit          3D

 25 27  0  0  0  0  0  0  0  0999 V2000
   40.7310   38.6060   30.1780 C   0  0  0  0  0  0  0  0  0  0  0  0
   36.0030   35.8710   31.7980 C   0  0  0  0  0  0  0  0  0  0  0  0
   34.0860   33.4860   33.5450 N   0  0  0  0  0  0  0  0  0  0  0  0
   33.8530   35.8530   32.3560 C   0  0  0  0  0  0  0  0  0  0  0  0
   38.5420   35.5760   31.4580 C   0  0  0  0  0  0  0  0  0  0  0  0
   38.5280   38.2220   30.7320 C   0  0  0  0  0  0  0  0  0  0  0  0
   36.7450   33.6780   32.8910 C   0  0  0  0  0  0  0  0  0  0  0  0
   34.7680   36.5690   31.6420 C   0  0  0  0  0  0  0  0  0  0  0  0
   39.8510   36.1950   31.2340 C   0  0  0  0  0  0  0  0  0  0  0  0
   43.1620   40.6970   30.9100 C   0  0  0  0  0  0  0  0  0  0  0  0
   44.4780   40.3180   31.3500 O   0  0  0  0  0  0  0  0  0  0  0  0
   42.1890   39.8780   31.4900 C   0  0  0  0  0  0  0  0  0  0  0  0
   40.8200   34.1190   31.1160 O   0  0  0  0  0  0  0  0  0  0  0  0
   37.3050   36.3370   31.4020 C   0  0  0  0  0  0  0  0  0  0  0  0
   40.9870   35.3650   31.0540 C   0  0  0  0  0  0  0  0  0  0  0  0
   42.0610   38.7250   30.5500 C   0  0  0  0  0  0  0  0  0  0  0  0
   39.8530   37.6480   31.0210 C   0  0  0  0  0  0  0  0  0  0  0  0
   42.1980   38.6310   32.1280 N   0  0  0  0  0  0  0  0  0  0  0  0
   31.7440   36.5640   33.6030 O   0  0  0  0  0  0  0  0  0  0  0  0
   43.0820   41.8550   30.5020 O   0  0  0  0  0  0  0  0  0  0  0  0
   37.3880   37.6330   30.8690 C   0  0  0  0  0  0  0  0  0  0  0  0
   42.2370   35.7340   30.8680 N   0  0  0  0  0  0  0  0  0  0  0  0
   34.4840   34.5120   32.7500 C   0  0  0  0  0  0  0  0  0  0  0  0
   35.7950   34.6750   32.4630 N   0  0  0  0  0  0  0  0  0  0  0  0
   32.5340   36.1980   32.9300 C   0  0  0  0  0  0  0  0  0  0  0  0
  1 17  1  0
  2 14  1  0
  2 24  1  0
  4 23  1  0
  4 25  2  0
  6 21  1  0
  6 17  2  0
  8  2  1  0
  8  4  1  0
  9  5  2  0
 10 11  1  0
 12 10  1  0
 12 18  1  0
 14  5  1  0
 15 13  2  0
 15  9  1  0
 16  1  1  0
 16 12  1  0
 16 18  1  0
 17  9  1  0
 20 10  2  0
 21 14  2  0
 22 15  1  0
 23  3  1  0
 24 23  1  0
 24  7  1  0
 25 19  2  0
M  END
$$$$

     RDKit          3D

 10 10  0  0  0  0  0  0  0  0999 V2000
   40.0050   37.8500   29.8150 C   0  0  0  0  0  0  0  0  0  0  0  0
   39.0230   37.2680   30.5350 C   0  0  0  0  0  0  0  0  0  0  0  0
   42.3220   37.7750   29.2020 F   0  0  0  0  0  0  0  0  0  0  0  0
   37.7860   37.7820   30.5240 O   0  0  0  0  0  0  0  0  0  0  0  0
   39.5810   36.6170   31.6830 O   0  0  0  0  0  0  0  0  0  0  0  0
   41.4020   35.9150   30.3200 C   0  0  0  0  0  0  0  0  0  0  0  0
   39.8090   39.2590   29.6830 O   0  0  0  0  0  0  0  0  0  0  0  0
   42.5500   35.2520   30.8120 O   0  0  0  0  0  0  0  0  0  0  0  0
   41.3990   37.4350   30.2550 C   0  0  0  0  0  0  0  0  0  0  0  0
   40.3510   35.5090   31.2720 O   0  0  0  0  0  0  0  0  0  0  0  0
  1  7  1  0
  1  9  1  0
  1  2  1  0
  2  5  1  0
  4  2  2  0
  6  8  1  0
  6 10  1  0
  9  3  1  0
  9  6  1  0
 10  5  1  0
M  END
$$$$

     RDKit          3D

 12 12  0  0  0  0  0  0  0  0999 V2000
   37.2450   37.1130   30.7650 C   0  0  0  0  0  0  0  0  0  0  0  0
   38.2640   35.1960   31.7840 C   0  0  0  0  0  0  0  0  0  0  0  0
   41.1920   38.7760   31.2210 C   0  0  0  0  0  0  0  0  0  0  0  0
   39.2680   38.3580   30.3490 C   0  0  0  0  0  0  0  0  0  0  0  0
   40.1250   39.2680   31.2430 C   0  0  0  0  0  0  0  0  0  0  0  0
   40.6270   35.9020   31.9270 N   0  0  0  0  0  0  0  0  0  0  0  0
   37.0740   35.8310   31.4550 C   0  0  0  0  0  0  0  0  0  0  0  0
   38.5930   37.4270   31.3590 C   0  0  0  0  0  0  0  0  0  0  0  0
   39.3370   36.1690   31.7030 C   0  0  0  0  0  0  0  0  0  0  0  0
   43.3790   37.7890   31.5970 C   0  0  0  0  0  0  0  0  0  0  0  0
   42.4930   38.4500   30.5870 C   0  0  0  0  0  0  0  0  0  0  0  0
   42.7390   39.5830   29.9500 O   0  0  0  0  0  0  0  0  0  0  0  0
  1  8  1  0
  1  7  1  0
  3  5  1  0
  4  5  1  0
  7  2  1  0
  8  4  1  0
  8  9  1  0
  9  2  1  0
  9  6  1  0
 11  3  1  0
 11 10  1  0
 12 11  1  0
M  END
$$$$

     RDKit          3D

  6  5  0  0  0  0  0  0  0  0999 V2000
   41.4020   38.7570   28.4980 C   0  0  0  0  0  0  0  0  0  0  0  0
   41.2100   38.3600   30.9550 C   0  0  0  0  0  0  0  0  0  0  0  0
   42.1050   37.2030   30.9780 N   0  0  0  0  0  0  0  0  0  0  0  0
   39.7860   37.8810   30.8010 C   0  0  0  0  0  0  0  0  0  0  0  0
   39.6120   36.5290   31.9960 S   0  0  0  0  0  0  0  0  0  0  0  0
   41.3820   39.3540   29.8620 C   0  0  0  0  0  0  0  0  0  0  0  0
  1  6  1  0
  2  3  1  0
  4  2  1  0
  4  5  1  0
  6  2  1  0
M  END
$$$$

     RDKit          3D

 14 14  0  0  0  0  0  0  0  0999 V2000
   32.0270   35.5290   31.7060 C   0  0  0  0  0  0  0  0  0  0  0  0
   33.3160   35.5390   31.8180 N   0  0  0  0  0  0  0  0  0  0  0  0
   36.6050   37.0730   31.2810 C   0  0  0  0  0  0  0  0  0  0  0  0
   39.9090   37.6700   31.4340 C   0  0  0  0  0  0  0  0  0  0  0  0
   35.4960   36.2500   31.8850 C   0  0  0  0  0  0  0  0  0  0  0  0
   38.5700   35.6980   31.4430 C   0  0  0  0  0  0  0  0  0  0  0  0
   33.7400   34.9240   32.8750 C   0  0  0  0  0  0  0  0  0  0  0  0
   37.8460   36.7870   31.2290 N   0  0  0  0  0  0  0  0  0  0  0  0
   35.8340   35.3160   32.8530 C   0  0  0  0  0  0  0  0  0  0  0  0
   36.2340   38.2770   30.9060 O   0  0  0  0  0  0  0  0  0  0  0  0
   40.1590   35.6410   31.3370 C   0  0  0  0  0  0  0  0  0  0  0  0
   34.2270   36.2920   31.1920 C   0  0  0  0  0  0  0  0  0  0  0  0
   40.6440   36.7740   30.5330 C   0  0  0  0  0  0  0  0  0  0  0  0
   38.6710   38.0340   31.0060 C   0  0  0  0  0  0  0  0  0  0  0  0
  1  2  1  0
  2  7  1  0
  3  5  1  0
  5  9  1  0
  8  3  1  0
  8  6  1  0
 10  3  2  0
 11  6  1  0
 12  2  1  0
 12  5  1  0
 13 11  1  0
 13  4  1  0
 14  8  1  0
 14  4  1  0
M  END
$$$$

     RDKit          3D

 14 14  0  0  0  0  0  0  0  0999 V2000
   43.8280   36.8760   31.0710 C   0  0  0  0  0  0  0  0  0  0  0  0
   39.1390   38.2200   32.0320 C   0  0  0  0  0  0  0  0  0  0  0  0
   37.8050   38.6950   31.2920 C   0  0  0  0  0  0  0  0  0  0  0  0
   37.4530   35.0900   30.6750 O   0  0  0  0  0  0  0  0  0  0  0  0
   39.7540   37.1410   31.4840 N   0  0  0  0  0  0  0  0  0  0  0  0
   36.3190   35.8460   30.5690 C   0  0  0  0  0  0  0  0  0  0  0  0
   41.0060   36.7090   31.8340 C   0  0  0  0  0  0  0  0  0  0  0  0
   43.0500   35.8500   30.8130 C   0  0  0  0  0  0  0  0  0  0  0  0
   36.9000   38.2630   31.1330 C   0  0  0  0  0  0  0  0  0  0  0  0
   42.9190   38.0590   31.1270 C   0  0  0  0  0  0  0  0  0  0  0  0
   35.2720   35.2250   30.1880 O   0  0  0  0  0  0  0  0  0  0  0  0
   36.1550   37.1500   31.2260 C   0  0  0  0  0  0  0  0  0  0  0  0
   41.6490   35.5860   31.1750 C   0  0  0  0  0  0  0  0  0  0  0  0
   41.9520   37.8170   32.2700 C   0  0  0  0  0  0  0  0  0  0  0  0
  1 10  1  0
  3  2  1  0
  5  7  1  0
  5  2  2  3
  6  4  1  0
  6 12  1  0
  7 14  1  0
  8  1  1  0
  8 13  1  0
  9 12  1  0
  9  3  2  3
 10 14  1  0
 11  6  2  0
 13  7  1  0
M  END
$$$$

     RDKit          3D

 16 17  0  0  0  0  0  0  0  0999 V2000
   47.3610   39.7610   29.7290 O   0  0  0  0  0  0  0  0  0  0  0  0
   43.3290   37.7420   29.8400 N   0  0  0  0  0  0  0  0  0  0  0  0
   42.0390   37.3480   30.1140 C   0  0  0  0  0  0  0  0  0  0  0  0
   41.1960   36.9890   29.2820 C   0  0  0  0  0  0  0  0  0  0  0  0
   44.9720   39.6710   29.3680 O   0  0  0  0  0  0  0  0  0  0  0  0
   40.5250   36.5800   33.5320 C   0  0  0  0  0  0  0  0  0  0  0  0
   39.4320   36.7790   32.6780 C   0  0  0  0  0  0  0  0  0  0  0  0
   45.3560   38.6630   30.5090 C   0  0  0  0  0  0  0  0  0  0  0  0
   40.5190   35.1730   31.3400 C   0  0  0  0  0  0  0  0  0  0  0  0
   40.7110   36.4540   32.0420 C   0  0  0  0  0  0  0  0  0  0  0  0
   44.1710   37.8720   30.9270 C   0  0  0  0  0  0  0  0  0  0  0  0
   40.3000   34.1540   32.3020 O   0  0  0  0  0  0  0  0  0  0  0  0
   46.2050   39.4290   29.9970 C   0  0  0  0  0  0  0  0  0  0  0  0
   41.5110   37.4270   31.4930 C   0  0  0  0  0  0  0  0  0  0  0  0
   38.2480   35.8810   32.3640 C   0  0  0  0  0  0  0  0  0  0  0  0
   44.4490   36.3930   30.9640 C   0  0  0  0  0  0  0  0  0  0  0  0
  1 13  2  0
  2  3  1  0
  2 11  1  0
  3 14  1  0
  4  3  2  0
  5 13  1  0
  5  8  1  0
  7 15  1  0
  7  6  1  0
  8 11  1  0
  9 12  1  0
 10  9  1  0
 10  7  1  0
 10  6  1  0
 11 16  1  0
 13  8  1  0
 14 10  1  0
M  END
$$$$

     RDKit          3D

 17 17  0  0  0  0  0  0  0  0999 V2000
   40.5970   37.8210   30.5750 C   0  0  0  0  0  0  0  0  0  0  0  0
   41.5920   40.6560   31.0030 C   0  0  0  0  0  0  0  0  0  0  0  0
   40.4990   34.8950   31.8460 C   0  0  0  0  0  0  0  0  0  0  0  0
   39.6270   32.6620   32.4760 C   0  0  0  0  0  0  0  0  0  0  0  0
   42.2370   35.6830   29.6320 O   0  0  0  0  0  0  0  0  0  0  0  0
   39.1280   38.2270   30.6450 C   0  0  0  0  0  0  0  0  0  0  0  0
   41.5790   34.4340   31.4020 N   0  0  0  0  0  0  0  0  0  0  0  0
   38.8820   39.3360   31.6660 C   0  0  0  0  0  0  0  0  0  0  0  0
   40.2650   40.2510   32.0920 S   0  0  0  0  0  0  0  0  0  0  0  0
   40.3930   32.1850   31.5120 O   0  0  0  0  0  0  0  0  0  0  0  0
   41.7190   39.9110   29.7250 C   0  0  0  0  0  0  0  0  0  0  0  0
   39.4630   34.1600   32.6710 C   0  0  0  0  0  0  0  0  0  0  0  0
   37.3680   31.9830   32.7790 C   0  0  0  0  0  0  0  0  0  0  0  0
   41.2700   38.8510   29.6770 N   0  0  0  0  0  0  0  0  0  0  0  0
   40.3010   36.4190   31.5290 O   0  0  0  0  0  0  0  0  0  0  0  0
   38.7840   31.8900   33.3260 N   0  0  0  0  0  0  0  0  0  0  0  0
   42.1140   35.1630   30.4470 C   0  0  0  0  0  0  0  0  0  0  0  0
  1  6  1  0
  1 15  1  0
  2  9  1  0
  3 12  1  0
  4 12  1  0
  4 16  1  0
  5 17  2  0
  6  8  1  0
  7  3  1  0
  8  9  1  0
 10  4  2  0
 11  2  1  0
 13 16  1  0
 14 11  1  0
 14  1  2  0
 15  3  1  0
 17  7  2  0
M  END
$$$$

     RDKit          3D

 11 10  0  0  0  0  0  0  0  0999 V2000
   41.5560   36.7910   27.7470 O   0  0  0  0  0  0  0  0  0  0  0  0
   39.8130   38.5520   29.8720 C   0  0  0  0  0  0  0  0  0  0  0  0
   43.3400   37.2780   29.7490 C   0  0  0  0  0  0  0  0  0  0  0  0
   37.4240   38.3660   31.0250 C   0  0  0  0  0  0  0  0  0  0  0  0
   37.5110   38.7000   31.9110 O   0  0  0  0  0  0  0  0  0  0  0  0
   42.0630   35.9960   31.2500 C   0  0  0  0  0  0  0  0  0  0  0  0
   41.8500   37.1300   30.2340 C   0  0  0  0  0  0  0  0  0  0  0  0
   40.4140   37.5140   30.7820 C   0  0  0  0  0  0  0  0  0  0  0  0
   36.2090   38.0810   30.6200 O   0  0  0  0  0  0  0  0  0  0  0  0
   38.3690   38.6750   29.9800 C   0  0  0  0  0  0  0  0  0  0  0  0
   41.3890   36.6520   28.9020 C   0  0  0  0  0  0  0  0  0  0  0  0
  1 11  2  0
  2 10  1  0
  2  8  1  0
  3  7  1  0
  4  5  1  0
  7  8  1  0
  7  6  1  0
  9  4  2  0
 10  4  1  0
 11  7  1  0
M  END
$$$$

     RDKit          3D

 13 13  0  0  0  0  0  0  0  0999 V2000
   38.7180   37.4900   31.0360 O   0  0  0  0  0  0  0  0  0  0  0  0
   40.3020   35.7670   31.7780 C   0  0  0  0  0  0  0  0  0  0  0  0
   41.8870   39.5390   29.1190 O   0  0  0  0  0  0  0  0  0  0  0  0
   41.5950   35.4090   29.8420 O   0  0  0  0  0  0  0  0  0  0  0  0
   43.0890   37.0170   28.9470 C   0  0  0  0  0  0  0  0  0  0  0  0
   41.8650   36.6970   29.7990 C   0  0  0  0  0  0  0  0  0  0  0  0
   39.6620   39.5370   29.5970 O   0  0  0  0  0  0  0  0  0  0  0  0
   39.2740   35.7790   32.7930 C   0  0  0  0  0  0  0  0  0  0  0  0
   40.0390   37.3330   31.3900 C   0  0  0  0  0  0  0  0  0  0  0  0
   41.6620   40.2580   27.8790 C   0  0  0  0  0  0  0  0  0  0  0  0
   40.9370   37.6910   30.2160 C   0  0  0  0  0  0  0  0  0  0  0  0
   40.7610   38.8670   29.5920 C   0  0  0  0  0  0  0  0  0  0  0  0
   40.3810   34.9920   30.5110 C   0  0  0  0  0  0  0  0  0  0  0  0
  2  8  1  0
  3 12  1  0
  4 13  1  0
  6  5  1  0
  6  4  1  0
  6 11  1  0
  9  1  1  0
  9  2  1  0
 10  3  1  0
 11 12  1  0
 11  9  1  0
 12  7  2  0
 13  2  1  0
M  END
$$$$

     RDKit          3D

 11 10  0  0  0  0  0  0  0  0999 V2000
   28.1880   36.2130   33.3220 C   0  0  0  0  0  0  0  0  0  0  0  0
   33.7690   36.3560   32.5540 C   0  0  0  0  0  0  0  0  0  0  0  0
   33.0880   36.4530   33.9270 C   0  0  0  0  0  0  0  0  0  0  0  0
   28.6060   34.9980   34.2330 C   0  0  0  0  0  0  0  0  0  0  0  0
   37.2350   34.6910   32.1830 C   0  0  0  0  0  0  0  0  0  0  0  0
   29.5650   35.3750   35.1020 C   0  0  0  0  0  0  0  0  0  0  0  0
   31.4760   35.2590   32.8880 O   0  0  0  0  0  0  0  0  0  0  0  0
   30.7850   36.1430   35.0410 C   0  0  0  0  0  0  0  0  0  0  0  0
   31.7220   35.9700   33.8830 C   0  0  0  0  0  0  0  0  0  0  0  0
   35.2270   36.0500   32.7500 C   0  0  0  0  0  0  0  0  0  0  0  0
   36.3580   35.9190   32.1080 C   0  0  0  0  0  0  0  0  0  0  0  0
  1  4  1  0
  2 10  1  0
  2  3  1  0
  4  6  1  0
  7  9  2  0
  8  6  1  0
  9  3  1  0
  9  8  1  0
 11  5  1  0
 11 10  1  0
M  END
$$$$

     RDKit          3D

 12 11  0  0  0  0  0  0  0  0999 V2000
   38.1280   36.7150   31.6760 S   0  0  0  0  0  0  0  0  0  0  0  0
   41.2340   36.4750   30.8390 O   0  0  0  0  0  0  0  0  0  0  0  0
   41.5250   39.7120   31.9880 O   0  0  0  0  0  0  0  0  0  0  0  0
   35.0880   35.9580   32.1270 O   0  0  0  0  0  0  0  0  0  0  0  0
   41.3760   38.4060   32.3750 C   0  0  0  0  0  0  0  0  0  0  0  0
   42.0310   37.9610   33.3630 O   0  0  0  0  0  0  0  0  0  0  0  0
   39.4180   38.9970   30.7850 O   0  0  0  0  0  0  0  0  0  0  0  0
   34.4200   37.0050   30.1090 C   0  0  0  0  0  0  0  0  0  0  0  0
   36.6490   37.5720   31.1850 C   0  0  0  0  0  0  0  0  0  0  0  0
   40.7320   37.3230   31.5740 C   0  0  0  0  0  0  0  0  0  0  0  0
   39.3920   37.7730   31.0740 C   0  0  0  0  0  0  0  0  0  0  0  0
   35.5220   36.5280   31.0330 C   0  0  0  0  0  0  0  0  0  0  0  0
  2 10  2  0
  3  5  2  0
  5  6  1  0
  7 11  2  0
  9  1  1  0
 10  5  1  0
 11 10  1  0
 11  1  1  0
 12  8  1  0
 12  9  1  0
 12  4  1  0
M  END
$$$$

     RDKit          3D

 30 33  0  0  0  0  0  0  0  0999 V2000
   37.6660   37.5380   31.7840 C   0  0  0  0  0  0  0  0  0  0  0  0
   34.2180   33.7200   33.8880 C   0  0  0  0  0  0  0  0  0  0  0  0
   39.2770   34.0850   31.0250 O   0  0  0  0  0  0  0  0  0  0  0  0
   36.3920   37.0070   31.0940 C   0  0  0  0  0  0  0  0  0  0  0  0
   34.1110   36.3060   28.1030 C   0  0  0  0  0  0  0  0  0  0  0  0
   36.8370   34.4380   30.6320 C   0  0  0  0  0  0  0  0  0  0  0  0
   45.2040   38.1940   28.1400 C   0  0  0  0  0  0  0  0  0  0  0  0
   32.6480   36.8830   29.6420 C   0  0  0  0  0  0  0  0  0  0  0  0
   38.7560   34.3690   33.1840 O   0  0  0  0  0  0  0  0  0  0  0  0
   42.8220   36.4450   30.0590 C   0  0  0  0  0  0  0  0  0  0  0  0
   45.0660   37.4870   29.3180 C   0  0  0  0  0  0  0  0  0  0  0  0
   35.2820   34.1920   33.0960 C   0  0  0  0  0  0  0  0  0  0  0  0
   41.2710   36.0110   32.1100 C   0  0  0  0  0  0  0  0  0  0  0  0
   35.0800   35.0680   32.0470 C   0  0  0  0  0  0  0  0  0  0  0  0
   44.3360   36.5610   30.1940 C   0  0  0  0  0  0  0  0  0  0  0  0
   42.4900   39.2440   30.8810 C   0  0  0  0  0  0  0  0  0  0  0  0
   34.3780   35.6480   29.2680 C   0  0  0  0  0  0  0  0  0  0  0  0
   42.7200   38.1070   31.8880 C   0  0  0  0  0  0  0  0  0  0  0  0
   38.5750   38.4650   31.0110 C   0  0  0  0  0  0  0  0  0  0  0  0
   32.8920   34.0290   33.5740 C   0  0  0  0  0  0  0  0  0  0  0  0
   33.0650   37.1490   28.3780 C   0  0  0  0  0  0  0  0  0  0  0  0
   38.0150   33.5050   30.5880 C   0  0  0  0  0  0  0  0  0  0  0  0
   42.1080   36.8000   31.3500 C   0  0  0  0  0  0  0  0  0  0  0  0
   39.1760   34.8340   32.1280 C   0  0  0  0  0  0  0  0  0  0  0  0
   33.5220   36.0120   30.2870 C   0  0  0  0  0  0  0  0  0  0  0  0
   33.7450   35.3110   31.6510 C   0  0  0  0  0  0  0  0  0  0  0  0
   32.6390   34.8490   32.4470 C   0  0  0  0  0  0  0  0  0  0  0  0
   39.0930   37.2110   31.6100 C   0  0  0  0  0  0  0  0  0  0  0  0
   36.2450   35.5570   31.3690 N   0  0  0  0  0  0  0  0  0  0  0  0
   39.7800   36.1340   31.9890 C   0  0  0  0  0  0  0  0  0  0  0  0
  1 19  1  0
  3 24  1  0
  4 29  1  0
  4  1  1  0
  5 21  2  0
  5 17  1  0
  6 29  1  0
  7 11  1  0
  8 25  2  0
 10 15  1  0
 11 15  1  0
 12  2  2  0
 14 12  1  0
 16 18  1  0
 17 25  1  0
 20  2  1  0
 21  8  1  0
 22  6  1  0
 22  3  1  0
 23 10  1  0
 23 18  1  0
 23 13  1  0
 24  9  2  0
 25 26  1  0
 26 14  2  0
 26 27  1  0
 27 20  2  0
 28 19  1  0
 28  1  1  0
 28 30  1  0
 29 14  1  0
 30 13  1  0
 30 24  1  0
M  END
$$$$

     RDKit          3D

  9  8  0  0  0  0  0  0  0  0999 V2000
   40.1920   37.6400   29.1310 O   0  0  0  0  0  0  0  0  0  0  0  0
   41.0870   40.0460   30.2690 C   0  0  0  0  0  0  0  0  0  0  0  0
   41.2780   37.5950   30.1800 C   0  0  0  0  0  0  0  0  0  0  0  0
   42.5990   38.3280   29.7130 C   0  0  0  0  0  0  0  0  0  0  0  0
   42.2950   39.7890   29.3440 C   0  0  0  0  0  0  0  0  0  0  0  0
   41.7090   36.2820   30.6650 C   0  0  0  0  0  0  0  0  0  0  0  0
   40.6190   41.0160   29.5720 O   0  0  0  0  0  0  0  0  0  0  0  0
   42.8630   41.1850   29.6810 O   0  0  0  0  0  0  0  0  0  0  0  0
   41.7440   35.1310   30.2510 O   0  0  0  0  0  0  0  0  0  0  0  0
  3  1  1  0
  3  6  1  0
  4  3  1  0
  5  8  1  0
  5  4  1  0
  5  2  1  0
  7  2  1  0
  9  6  2  0
M  END
$$$$

     RDKit          3D

  7  6  0  0  0  0  0  0  0  0999 V2000
   38.9770   39.3480   32.3430 O   0  0  0  0  0  0  0  0  0  0  0  0
   40.9540   37.7610   32.3080 O   0  0  0  0  0  0  0  0  0  0  0  0
   40.6550   37.3480   31.1240 C   0  0  0  0  0  0  0  0  0  0  0  0
   41.4410   36.3960   30.4850 N   0  0  0  0  0  0  0  0  0  0  0  0
   39.3400   37.7390   30.5140 C   0  0  0  0  0  0  0  0  0  0  0  0
   37.3620   39.1360   30.8920 N   0  0  0  0  0  0  0  0  0  0  0  0
   38.7420   38.8000   31.4410 C   0  0  0  0  0  0  0  0  0  0  0  0
  3  2  2  0
  4  3  1  0
  5  3  1  0
  5  7  1  0
  6  7  1  0
  7  1  2  0
M  END
$$$$

     RDKit          3D

 12 12  0  0  0  0  0  0  0  0999 V2000
   41.2450   37.5180   30.6410 C   0  0  0  0  0  0  0  0  0  0  0  0
   41.8690   35.1750   30.8200 C   0  0  0  0  0  0  0  0  0  0  0  0
   39.7370   36.0350   31.7560 C   0  0  0  0  0  0  0  0  0  0  0  0
   43.7220   36.8390   30.5970 C   0  0  0  0  0  0  0  0  0  0  0  0
   37.7640   37.9980   31.6430 O   0  0  0  0  0  0  0  0  0  0  0  0
   40.4940   38.7230   32.4170 C   0  0  0  0  0  0  0  0  0  0  0  0
   38.6920   37.8040   30.9130 C   0  0  0  0  0  0  0  0  0  0  0  0
   40.0280   37.5220   31.4810 C   0  0  0  0  0  0  0  0  0  0  0  0
   38.4210   37.6930   29.6690 O   0  0  0  0  0  0  0  0  0  0  0  0
   40.4970   35.0480   30.8840 C   0  0  0  0  0  0  0  0  0  0  0  0
   40.1680   33.6570   31.3710 N   0  0  0  0  0  0  0  0  0  0  0  0
   42.2780   36.5770   30.6890 N   0  0  0  0  0  0  0  0  0  0  0  0
  1 12  1  0
  1  8  1  0
  2 10  1  0
  4 12  1  0
  7  8  1  0
  7  5  1  0
  8  3  1  0
  8  6  1  0
  9  7  2  0
 10 11  1  0
 10  3  1  0
 12  2  1  0
M  END
$$$$
