
     RDKit          3D

 11 11  0  0  0  0  0  0  0  0999 V2000
   39.1120   37.1320   27.2360 N   0  0  0  0  0  0  0  0  0  0  0  0
   40.5320   32.5960   29.4600 C   0  0  0  0  0  0  0  0  0  0  0  0
   39.1000   30.8220   30.3790 C   0  0  0  0  0  0  0  0  0  0  0  0
   41.0840   35.8930   26.7840 N   0  0  0  0  0  0  0  0  0  0  0  0
   39.0040   33.1710   31.2470 C   0  0  0  0  0  0  0  0  0  0  0  0
   41.9080   34.8360   26.9030 C   0  0  0  0  0  0  0  0  0  0  0  0
   39.4300   34.8450   28.4510 S   0  0  0  0  0  0  0  0  0  0  0  0
   40.7210   33.7050   28.5260 C   0  0  0  0  0  0  0  0  0  0  0  0
   39.8830   36.0490   27.3720 C   0  0  0  0  0  0  0  0  0  0  0  0
   39.5900   32.1770   30.3090 C   0  0  0  0  0  0  0  0  0  0  0  0
   41.7420   33.7180   27.6530 N   0  0  0  0  0  0  0  0  0  0  0  0
  1  9  1  0
  2 10  1  0
  4  6  1  0
  4  9  2  0
  6 11  2  0
  7  8  1  0
  8  2  2  3
  9  7  1  0
 10  3  1  0
 10  5  1  0
 11  8  1  0
M  END
$$$$

     RDKit          3D

 29 28  0  0  0  0  0  0  0  0999 V2000
   40.6730   36.1810   28.6610 C   0  0  0  0  0  0  0  0  0  0  0  0
   36.8230   29.9510   32.7560 C   0  0  0  0  0  0  0  0  0  0  0  0
   39.0120   34.0180   31.0090 C   0  0  0  0  0  0  0  0  0  0  0  0
   42.6160   34.4070   26.2870 C   0  0  0  0  0  0  0  0  0  0  0  0
   35.9780   32.5140   34.2940 C   0  0  0  0  0  0  0  0  0  0  0  0
   41.7270   34.0590   26.8990 O   0  0  0  0  0  0  0  0  0  0  0  0
   40.8540   33.7450   27.9040 C   0  0  0  0  0  0  0  0  0  0  0  0
   40.0650   34.7940   28.5710 C   0  0  0  0  0  0  0  0  0  0  0  0
   38.1720   34.7420   30.1280 N   0  0  0  0  0  0  0  0  0  0  0  0
   34.6980   35.4770   31.9270 C   0  0  0  0  0  0  0  0  0  0  0  0
   43.1920   36.4920   25.3210 C   0  0  0  0  0  0  0  0  0  0  0  0
   35.5520   27.1420   33.4300 C   0  0  0  0  0  0  0  0  0  0  0  0
   42.4130   35.2420   25.0300 C   0  0  0  0  0  0  0  0  0  0  0  0
   36.7490   35.1880   30.4670 C   0  0  0  0  0  0  0  0  0  0  0  0
   34.5300   35.6030   33.1580 O   0  0  0  0  0  0  0  0  0  0  0  0
   42.2240   37.5360   25.6390 C   0  0  0  0  0  0  0  0  0  0  0  0
   38.5650   34.8480   28.7660 C   0  0  0  0  0  0  0  0  0  0  0  0
   36.1740   33.7620   32.3650 N   0  0  0  0  0  0  0  0  0  0  0  0
   40.7290   32.5670   28.1600 O   0  0  0  0  0  0  0  0  0  0  0  0
   36.2410   30.2040   33.9270 C   0  0  0  0  0  0  0  0  0  0  0  0
   33.9970   35.9630   31.0560 O   0  0  0  0  0  0  0  0  0  0  0  0
   36.5580   27.9870   34.1630 C   0  0  0  0  0  0  0  0  0  0  0  0
   40.8670   37.2920   25.7670 O   0  0  0  0  0  0  0  0  0  0  0  0
   36.6490   31.0260   32.4260 C   0  0  0  0  0  0  0  0  0  0  0  0
   35.9980   29.0070   34.7350 O   0  0  0  0  0  0  0  0  0  0  0  0
   36.0890   31.2910   34.7740 C   0  0  0  0  0  0  0  0  0  0  0  0
   42.3840   38.8350   25.1220 O   0  0  0  0  0  0  0  0  0  0  0  0
   35.3170   32.8360   33.0550 C   0  0  0  0  0  0  0  0  0  0  0  0
   35.9710   34.7850   31.4250 C   0  0  0  0  0  0  0  0  0  0  0  0
  4  6  1  0
  5 26  1  0
  6  7  1  0
  7 19  2  0
  7  8  1  0
  8  1  1  0
  8 17  1  0
  9 14  1  0
  9  3  1  0
 10 15  1  0
 11 16  1  0
 12 22  1  0
 13 11  1  0
 13  4  1  0
 14 29  2  3
 16 23  1  0
 17  9  1  0
 18 28  1  0
 20  2  1  0
 20 25  1  0
 20 26  1  0
 21 10  2  0
 22 25  1  0
 24  2  1  0
 27 16  2  0
 28  5  1  0
 29 10  1  0
 29 18  1  0
M  END
$$$$

     RDKit          3D

 14 14  0  0  0  0  0  0  0  0999 V2000
   39.7330   33.3100   28.6880 C   0  0  0  0  0  0  0  0  0  0  0  0
   40.9500   37.0170   26.8780 C   0  0  0  0  0  0  0  0  0  0  0  0
   41.4240   36.9780   25.4100 C   0  0  0  0  0  0  0  0  0  0  0  0
   42.3840   38.6660   23.9550 N   0  0  0  0  0  0  0  0  0  0  0  0
   40.2810   35.7360   27.4800 C   0  0  0  0  0  0  0  0  0  0  0  0
   40.6100   34.5190   26.9050 C   0  0  0  0  0  0  0  0  0  0  0  0
   43.1660   36.5030   22.2840 O   0  0  0  0  0  0  0  0  0  0  0  0
   41.3410   36.2810   23.9930 C   0  0  0  0  0  0  0  0  0  0  0  0
   39.2910   34.4970   29.2720 C   0  0  0  0  0  0  0  0  0  0  0  0
   41.7430   36.5520   22.5390 C   0  0  0  0  0  0  0  0  0  0  0  0
   39.5340   35.7340   28.6430 C   0  0  0  0  0  0  0  0  0  0  0  0
   40.8200   38.0010   27.5220 O   0  0  0  0  0  0  0  0  0  0  0  0
   41.1990   38.3610   24.8970 C   0  0  0  0  0  0  0  0  0  0  0  0
   40.4600   33.3590   27.5760 N   0  0  0  0  0  0  0  0  0  0  0  0
  1  9  1  0
  2  5  1  0
  2 12  2  0
  3  8  1  0
  3  2  1  0
  4 13  1  0
  5 11  1  0
  6  5  2  0
  6 14  1  0
  7 10  1  0
 10  8  1  0
 11  9  2  0
 13  3  1  0
 14  1  2  0
M  END
$$$$

     RDKit          3D

 21 23  0  0  0  0  0  0  0  0999 V2000
   38.7830   33.2270   29.4570 C   0  0  0  0  0  0  0  0  0  0  0  0
   36.8070   27.9850   31.5390 C   0  0  0  0  0  0  0  0  0  0  0  0
   39.2430   36.1040   27.3530 N   0  0  0  0  0  0  0  0  0  0  0  0
   40.9110   34.4140   27.3370 C   0  0  0  0  0  0  0  0  0  0  0  0
   39.8360   35.0510   27.9120 C   0  0  0  0  0  0  0  0  0  0  0  0
   42.7920   35.1420   25.9090 O   0  0  0  0  0  0  0  0  0  0  0  0
   39.4350   34.6350   29.3380 C   0  0  0  0  0  0  0  0  0  0  0  0
   37.6860   30.1360   30.7380 N   0  0  0  0  0  0  0  0  0  0  0  0
   38.6810   37.5060   25.5810 C   0  0  0  0  0  0  0  0  0  0  0  0
   41.2720   33.1210   27.1960 F   0  0  0  0  0  0  0  0  0  0  0  0
   37.0880   29.4210   32.0280 C   0  0  0  0  0  0  0  0  0  0  0  0
   36.8360   30.5020   33.1240 C   0  0  0  0  0  0  0  0  0  0  0  0
   38.2580   32.7480   30.8230 C   0  0  0  0  0  0  0  0  0  0  0  0
   41.5820   35.2310   26.1790 C   0  0  0  0  0  0  0  0  0  0  0  0
   36.8290   29.0750   33.5750 C   0  0  0  0  0  0  0  0  0  0  0  0
   40.9420   36.7630   24.2920 C   0  0  0  0  0  0  0  0  0  0  0  0
   40.7160   36.2070   25.5800 C   0  0  0  0  0  0  0  0  0  0  0  0
   39.6400   36.6280   26.2130 C   0  0  0  0  0  0  0  0  0  0  0  0
   38.6890   31.2940   31.0080 C   0  0  0  0  0  0  0  0  0  0  0  0
   38.7690   37.7820   24.2280 C   0  0  0  0  0  0  0  0  0  0  0  0
   39.6310   37.0520   23.5320 C   0  0  0  0  0  0  0  0  0  0  0  0
  1 13  1  0
  2 11  1  0
  3  5  1  0
  4 10  1  0
  4  5  1  0
  5  7  1  0
  6 14  2  0
  7  1  2  3
  8 19  1  0
  8 11  1  0
  9 18  1  0
 11 12  1  0
 11 15  1  0
 12 15  1  0
 13 19  1  0
 14  4  1  0
 17 16  1  0
 17 14  1  0
 17 18  1  0
 18  3  2  0
 20  9  2  0
 21 20  1  0
 21 16  1  0
M  END
$$$$

     RDKit          3D

 29 30  0  0  0  0  0  0  0  0999 V2000
   36.3080   34.5740   30.9760 C   0  0  0  0  0  0  0  0  0  0  0  0
   43.4900   37.7080   27.5530 C   0  0  0  0  0  0  0  0  0  0  0  0
   35.0860   32.6150   32.0490 C   0  0  0  0  0  0  0  0  0  0  0  0
   32.2610   33.8050   33.9490 C   0  0  0  0  0  0  0  0  0  0  0  0
   43.4770   36.8550   25.1920 C   0  0  0  0  0  0  0  0  0  0  0  0
   36.1900   33.1760   31.3940 C   0  0  0  0  0  0  0  0  0  0  0  0
   32.3490   31.2610   35.7350 C   0  0  0  0  0  0  0  0  0  0  0  0
   40.2570   32.8230   28.8910 C   0  0  0  0  0  0  0  0  0  0  0  0
   33.8700   33.5310   32.1570 C   0  0  0  0  0  0  0  0  0  0  0  0
   32.0150   30.0410   36.5960 C   0  0  0  0  0  0  0  0  0  0  0  0
   39.8580   37.5580   28.0040 C   0  0  0  0  0  0  0  0  0  0  0  0
   41.6920   34.8730   28.0520 C   0  0  0  0  0  0  0  0  0  0  0  0
   32.8720   33.3900   31.0700 C   0  0  0  0  0  0  0  0  0  0  0  0
   33.1000   31.5010   33.4150 C   0  0  0  0  0  0  0  0  0  0  0  0
   39.5310   36.5910   29.1070 C   0  0  0  0  0  0  0  0  0  0  0  0
   38.5280   33.9720   29.9520 C   0  0  0  0  0  0  0  0  0  0  0  0
   32.9300   32.9410   33.0470 N   0  0  0  0  0  0  0  0  0  0  0  0
   39.3230   31.8100   29.3090 C   0  0  0  0  0  0  0  0  0  0  0  0
   43.5000   36.5400   26.6640 N   0  0  0  0  0  0  0  0  0  0  0  0
   32.1080   33.5940   35.2360 C   0  0  0  0  0  0  0  0  0  0  0  0
   39.7430   34.0800   29.2310 C   0  0  0  0  0  0  0  0  0  0  0  0
   37.7560   34.9790   30.6680 C   0  0  0  0  0  0  0  0  0  0  0  0
   37.9720   32.2820   29.9420 S   0  0  0  0  0  0  0  0  0  0  0  0
   40.3710   35.2930   28.7510 C   0  0  0  0  0  0  0  0  0  0  0  0
   42.8970   35.2700   27.1610 C   0  0  0  0  0  0  0  0  0  0  0  0
   44.9070   38.3270   27.4280 C   0  0  0  0  0  0  0  0  0  0  0  0
   41.1420   37.2940   27.4670 O   0  0  0  0  0  0  0  0  0  0  0  0
   42.2320   37.3810   28.3690 C   0  0  0  0  0  0  0  0  0  0  0  0
   32.1300   31.2990   34.3130 N   0  0  0  0  0  0  0  0  0  0  0  0
  1  6  1  0
  2 26  1  0
  2 28  1  0
  3  9  1  0
  4 20  2  0
  5 19  1  0
  6  3  1  0
  7 10  1  0
  8 21  1  0
  8 18  2  0
  9 13  1  0
  9 17  1  0
 11 15  1  0
 12 24  2  0
 14 29  1  0
 16 22  1  0
 17 14  1  0
 17  4  1  0
 18 23  1  0
 19 25  1  0
 19  2  1  0
 21 16  2  0
 22  1  1  0
 23 16  1  0
 24 15  1  0
 24 21  1  0
 25 12  1  0
 27 11  1  0
 27 28  1  0
 29  7  1  0
M  END
$$$$

     RDKit          3D

 25 27  0  0  0  0  0  0  0  0999 V2000
   41.7420   33.7750   27.5700 C   0  0  0  0  0  0  0  0  0  0  0  0
   38.3130   32.2220   30.7470 C   0  0  0  0  0  0  0  0  0  0  0  0
   34.0140   31.7690   33.1130 C   0  0  0  0  0  0  0  0  0  0  0  0
   42.7350   37.0210   26.2330 C   0  0  0  0  0  0  0  0  0  0  0  0
   35.7110   33.0310   31.3100 C   0  0  0  0  0  0  0  0  0  0  0  0
   47.1630   35.5080   27.8250 C   0  0  0  0  0  0  0  0  0  0  0  0
   33.4930   33.0790   33.8470 C   0  0  0  0  0  0  0  0  0  0  0  0
   33.1070   32.2360   32.7110 C   0  0  0  0  0  0  0  0  0  0  0  0
   38.5590   34.1310   29.3160 N   0  0  0  0  0  0  0  0  0  0  0  0
   44.0120   37.4940   26.9500 C   0  0  0  0  0  0  0  0  0  0  0  0
   35.4280   31.1650   33.0210 C   0  0  0  0  0  0  0  0  0  0  0  0
   41.8780   36.7140   27.4620 C   0  0  0  0  0  0  0  0  0  0  0  0
   36.2410   31.8940   31.9470 C   0  0  0  0  0  0  0  0  0  0  0  0
   36.5300   33.8700   30.5400 C   0  0  0  0  0  0  0  0  0  0  0  0
   40.5880   35.3550   28.8840 C   0  0  0  0  0  0  0  0  0  0  0  0
   37.5160   31.5020   31.5840 C   0  0  0  0  0  0  0  0  0  0  0  0
   37.8370   33.4330   30.2230 C   0  0  0  0  0  0  0  0  0  0  0  0
   40.4700   33.0680   27.9370 C   0  0  0  0  0  0  0  0  0  0  0  0
   35.8560   31.1600   34.4170 N   0  0  0  0  0  0  0  0  0  0  0  0
   41.4500   35.2790   27.6790 N   0  0  0  0  0  0  0  0  0  0  0  0
   45.6830   35.8340   26.0350 C   0  0  0  0  0  0  0  0  0  0  0  0
   41.2000   37.6960   27.9260 N   0  0  0  0  0  0  0  0  0  0  0  0
   44.8660   36.2490   27.2050 C   0  0  0  0  0  0  0  0  0  0  0  0
   46.3130   36.6440   27.1180 C   0  0  0  0  0  0  0  0  0  0  0  0
   39.9660   33.9840   28.9760 C   0  0  0  0  0  0  0  0  0  0  0  0
  1 20  1  0
  1 18  1  0
  2 16  1  0
  4 10  1  0
  4 12  1  0
  5 13  1  0
  8  3  1  0
  8  7  1  0
  9 17  1  0
 11  3  1  0
 11 19  1  0
 12 20  1  0
 12 22  2  0
 13 11  1  0
 14  5  2  0
 15 25  1  0
 16 13  2  0
 17 14  1  0
 17  2  2  0
 18 25  1  0
 20 15  1  0
 21 24  1  0
 21 23  1  0
 23 10  1  0
 24 23  1  0
 24  6  1  0
 25  9  1  0
M  END
$$$$

     RDKit          3D

 12 11  0  0  0  0  0  0  0  0999 V2000
   40.7030   36.4870   23.3110 C   0  0  0  0  0  0  0  0  0  0  0  0
   41.8040   35.6280   26.3740 C   0  0  0  0  0  0  0  0  0  0  0  0
   42.5080   34.4060   25.7570 C   0  0  0  0  0  0  0  0  0  0  0  0
   40.4010   35.8510   25.7910 C   0  0  0  0  0  0  0  0  0  0  0  0
   39.5030   35.9320   28.1340 C   0  0  0  0  0  0  0  0  0  0  0  0
   39.0480   34.5990   28.8650 C   0  0  0  0  0  0  0  0  0  0  0  0
   40.2250   37.4730   22.4390 O   0  0  0  0  0  0  0  0  0  0  0  0
   40.2470   33.8540   29.1400 C   0  0  0  0  0  0  0  0  0  0  0  0
   39.0600   39.0260   24.4150 C   0  0  0  0  0  0  0  0  0  0  0  0
   39.2530   37.7640   24.8400 O   0  0  0  0  0  0  0  0  0  0  0  0
   40.3790   36.8940   24.7390 C   0  0  0  0  0  0  0  0  0  0  0  0
   39.4890   36.3150   26.9190 C   0  0  0  0  0  0  0  0  0  0  0  0
  3  2  1  0
  4  2  1  0
  4 12  1  0
  5  6  1  0
  6  8  1  0
  7  1  1  0
  9 10  1  0
 11  1  1  0
 11 10  1  0
 11  4  1  0
 12  5  1  0
M  END
$$$$

     RDKit          3D

  7  7  0  0  0  0  0  0  0  0999 V2000
   38.1160   35.5240   28.9460 C   0  0  0  0  0  0  0  0  0  0  0  0
   37.2490   35.0150   29.8140 C   0  0  0  0  0  0  0  0  0  0  0  0
   39.3070   34.8470   28.8660 C   0  0  0  0  0  0  0  0  0  0  0  0
   37.3220   33.3760   31.5540 F   0  0  0  0  0  0  0  0  0  0  0  0
   40.3470   35.0830   27.9570 N   0  0  0  0  0  0  0  0  0  0  0  0
   39.1670   33.7740   29.8570 C   0  0  0  0  0  0  0  0  0  0  0  0
   37.8960   33.9520   30.4670 C   0  0  0  0  0  0  0  0  0  0  0  0
  1  2  1  0
  2  7  1  0
  3  1  2  0
  3  6  1  0
  5  3  1  0
  6  7  2  0
  7  4  1  0
M  END
$$$$

     RDKit          3D

 22 24  0  0  0  0  0  0  0  0999 V2000
   38.3380   32.3660   31.3840 C   0  0  0  0  0  0  0  0  0  0  0  0
   35.2770   32.0670   33.7080 C   0  0  0  0  0  0  0  0  0  0  0  0
   37.0010   32.5030   31.8370 C   0  0  0  0  0  0  0  0  0  0  0  0
   41.0570   35.1430   27.8430 N   0  0  0  0  0  0  0  0  0  0  0  0
   40.0500   36.6490   26.0930 C   0  0  0  0  0  0  0  0  0  0  0  0
   36.5950   34.1750   30.1150 C   0  0  0  0  0  0  0  0  0  0  0  0
   35.8190   35.5640   28.1750 C   0  0  0  0  0  0  0  0  0  0  0  0
   35.6670   34.9690   29.3440 C   0  0  0  0  0  0  0  0  0  0  0  0
   33.5010   34.0800   34.1930 Cl  0  0  0  0  0  0  0  0  0  0  0  0
   38.8520   33.2030   30.3890 C   0  0  0  0  0  0  0  0  0  0  0  0
   40.1290   34.7330   28.7120 C   0  0  0  0  0  0  0  0  0  0  0  0
   36.7750   35.9540   27.2050 C   0  0  0  0  0  0  0  0  0  0  0  0
   34.9410   33.9030   31.9830 C   0  0  0  0  0  0  0  0  0  0  0  0
   38.6320   34.8430   28.6500 C   0  0  0  0  0  0  0  0  0  0  0  0
   36.7850   36.8120   26.0720 O   0  0  0  0  0  0  0  0  0  0  0  0
   39.0750   36.5780   27.1340 O   0  0  0  0  0  0  0  0  0  0  0  0
   34.7710   33.4030   33.2240 C   0  0  0  0  0  0  0  0  0  0  0  0
   36.1660   33.4890   31.3040 C   0  0  0  0  0  0  0  0  0  0  0  0
   37.9890   34.0860   29.7400 C   0  0  0  0  0  0  0  0  0  0  0  0
   36.4720   31.6460   32.9000 C   0  0  0  0  0  0  0  0  0  0  0  0
   38.2000   35.4660   27.3360 C   0  0  0  0  0  0  0  0  0  0  0  0
   42.3670   35.7270   28.0230 C   0  0  0  0  0  0  0  0  0  0  0  0
  1  3  1  0
  3 20  1  0
  4 22  1  0
  4 11  1  0
  5 16  1  0
  6 18  1  0
  7  8  2  0
  8  6  1  0
 10  1  2  0
 12 15  1  0
 12 21  1  0
 12  7  1  0
 13 17  1  0
 14 11  2  3
 14 19  1  0
 17  2  1  0
 17  9  1  0
 18  3  2  0
 18 13  1  0
 19  6  2  0
 19 10  1  0
 20  2  1  0
 21 16  1  0
 21 14  1  0
M  END
$$$$

     RDKit          3D

 22 24  0  0  0  0  0  0  0  0999 V2000
   36.8560   32.3870   29.6280 N   0  0  0  0  0  0  0  0  0  0  0  0
   39.7960   36.5290   27.7700 C   0  0  0  0  0  0  0  0  0  0  0  0
   38.2960   31.6590   29.8970 S   0  0  0  0  0  0  0  0  0  0  0  0
   41.9030   39.0900   26.2530 O   0  0  0  0  0  0  0  0  0  0  0  0
   35.6350   34.4530   32.6730 C   0  0  0  0  0  0  0  0  0  0  0  0
   40.8160   35.8400   26.9410 O   0  0  0  0  0  0  0  0  0  0  0  0
   37.4300   33.3110   31.6010 C   0  0  0  0  0  0  0  0  0  0  0  0
   38.8080   32.7460   31.2540 C   0  0  0  0  0  0  0  0  0  0  0  0
   36.7480   33.6080   32.8050 C   0  0  0  0  0  0  0  0  0  0  0  0
   42.8100   37.7340   26.8600 O   0  0  0  0  0  0  0  0  0  0  0  0
   35.9460   34.7760   30.3800 C   0  0  0  0  0  0  0  0  0  0  0  0
   37.9010   37.2040   27.6860 S   0  0  0  0  0  0  0  0  0  0  0  0
   35.2580   35.0880   31.5190 C   0  0  0  0  0  0  0  0  0  0  0  0
   38.1840   30.2040   30.8400 C   0  0  0  0  0  0  0  0  0  0  0  0
   38.0920   34.8000   28.4490 N   0  0  0  0  0  0  0  0  0  0  0  0
   41.6580   38.1630   26.7480 C   0  0  0  0  0  0  0  0  0  0  0  0
   36.7260   33.5780   30.4470 C   0  0  0  0  0  0  0  0  0  0  0  0
   39.4130   35.3700   28.9330 C   0  0  0  0  0  0  0  0  0  0  0  0
   39.2450   31.8090   28.7270 O   0  0  0  0  0  0  0  0  0  0  0  0
   40.7130   37.8320   27.8560 N   0  0  0  0  0  0  0  0  0  0  0  0
   37.1470   35.8180   28.4830 C   0  0  0  0  0  0  0  0  0  0  0  0
   35.9550   35.6770   29.2070 N   0  0  0  0  0  0  0  0  0  0  0  0
  1  3  1  0
  1 17  1  0
  2  6  1  0
  2 20  1  0
  2 18  1  0
  3 14  1  0
  3  8  1  0
  4 16  2  0
  5  9  1  0
  7  9  2  0
  8  7  1  0
 11 17  2  0
 11 13  1  0
 12  2  1  0
 12 21  1  0
 13  5  2  0
 15 21  2  0
 15 18  1  0
 16 10  1  0
 16 20  1  0
 17  7  1  0
 19  3  1  0
 21 22  1  0
 22 11  1  0
M  END
$$$$

     RDKit          3D

 15 14  0  0  0  0  0  0  0  0999 V2000
   37.5140   33.4420   30.4790 C   0  0  0  0  0  0  0  0  0  0  0  0
   41.0040   36.2690   27.7860 C   0  0  0  0  0  0  0  0  0  0  0  0
   37.4250   30.9310   30.4150 C   0  0  0  0  0  0  0  0  0  0  0  0
   34.3220   34.8390   30.8930 N   0  0  0  0  0  0  0  0  0  0  0  0
   42.2000   36.2060   27.2390 C   0  0  0  0  0  0  0  0  0  0  0  0
   40.3750   34.9480   28.0940 C   0  0  0  0  0  0  0  0  0  0  0  0
   36.7470   34.7350   30.7930 C   0  0  0  0  0  0  0  0  0  0  0  0
   39.5840   34.8800   29.4040 C   0  0  0  0  0  0  0  0  0  0  0  0
   35.6610   33.4210   32.7050 C   0  0  0  0  0  0  0  0  0  0  0  0
   44.5480   35.5350   27.1960 C   0  0  0  0  0  0  0  0  0  0  0  0
   43.1430   35.0020   27.0990 C   0  0  0  0  0  0  0  0  0  0  0  0
   37.0270   32.2360   30.8570 N   0  0  0  0  0  0  0  0  0  0  0  0
   39.2490   32.5570   28.9850 O   0  0  0  0  0  0  0  0  0  0  0  0
   35.4440   34.3970   31.4800 C   0  0  0  0  0  0  0  0  0  0  0  0
   38.6580   33.6880   29.5000 C   0  0  0  0  0  0  0  0  0  0  0  0
  1  7  1  0
  1 12  2  3
  2  6  1  0
  3 12  1  0
  4 14  1  0
  5  2  2  3
  6  8  1  0
  7 14  1  0
  8 15  1  0
 11 10  1  0
 11  5  1  0
 14  9  1  0
 15 13  1  0
 15  1  1  0
M  END
$$$$

     RDKit          3D

  7  7  0  0  0  0  0  0  0  0999 V2000
   37.3100   35.5610   28.8900 C   0  0  0  0  0  0  0  0  0  0  0  0
   36.9730   34.4250   29.9020 C   0  0  0  0  0  0  0  0  0  0  0  0
   39.4760   34.2220   28.2500 C   0  0  0  0  0  0  0  0  0  0  0  0
   38.2270   33.7730   30.5350 C   0  0  0  0  0  0  0  0  0  0  0  0
   38.8320   35.6830   28.4130 C   0  0  0  0  0  0  0  0  0  0  0  0
   39.1830   33.2420   29.4490 C   0  0  0  0  0  0  0  0  0  0  0  0
   37.7970   32.6650   31.4070 N   0  0  0  0  0  0  0  0  0  0  0  0
  1  2  1  0
  2  4  1  0
  3  5  1  0
  3  6  1  0
  4  7  1  0
  5  1  1  0
  6  4  1  0
M  END
$$$$

     RDKit          3D

 24 24  0  0  0  0  0  0  0  0999 V2000
   43.3610   33.3050   25.0960 O   0  0  0  0  0  0  0  0  0  0  0  0
   32.6780   31.8970   37.1090 C   0  0  0  0  0  0  0  0  0  0  0  0
   39.5110   36.8840   28.4390 N   0  0  0  0  0  0  0  0  0  0  0  0
   42.0250   38.1630   27.2690 C   0  0  0  0  0  0  0  0  0  0  0  0
   44.3570   34.8830   26.6420 C   0  0  0  0  0  0  0  0  0  0  0  0
   35.4160   33.9210   31.3880 C   0  0  0  0  0  0  0  0  0  0  0  0
   43.1930   33.9640   26.3600 C   0  0  0  0  0  0  0  0  0  0  0  0
   38.7260   35.9040   29.0360 C   0  0  0  0  0  0  0  0  0  0  0  0
   45.5070   34.8060   25.7410 O   0  0  0  0  0  0  0  0  0  0  0  0
   41.6410   35.6160   27.5470 C   0  0  0  0  0  0  0  0  0  0  0  0
   42.4960   38.6900   28.6350 C   0  0  0  0  0  0  0  0  0  0  0  0
   34.9840   32.7470   31.9610 N   0  0  0  0  0  0  0  0  0  0  0  0
   40.3340   36.1310   27.6120 N   0  0  0  0  0  0  0  0  0  0  0  0
   36.7520   33.6100   30.4380 C   0  0  0  0  0  0  0  0  0  0  0  0
   42.5300   36.7440   26.9640 C   0  0  0  0  0  0  0  0  0  0  0  0
   32.4090   32.5180   34.7030 C   0  0  0  0  0  0  0  0  0  0  0  0
   39.3700   34.8610   29.3890 O   0  0  0  0  0  0  0  0  0  0  0  0
   33.0550   32.5770   33.3100 C   0  0  0  0  0  0  0  0  0  0  0  0
   37.2720   36.0690   29.5220 C   0  0  0  0  0  0  0  0  0  0  0  0
   41.7760   34.4030   26.6370 C   0  0  0  0  0  0  0  0  0  0  0  0
   33.2690   32.0720   35.8060 O   0  0  0  0  0  0  0  0  0  0  0  0
   34.6250   32.4170   33.3750 C   0  0  0  0  0  0  0  0  0  0  0  0
   36.6290   34.6980   29.3580 C   0  0  0  0  0  0  0  0  0  0  0  0
   43.8670   36.2730   27.1340 C   0  0  0  0  0  0  0  0  0  0  0  0
  3  8  1  0
  4 11  1  0
  5  9  1  0
  5 24  1  0
  6 12  1  0
  7  1  1  0
  7 20  1  0
  7  5  1  0
  8 17  2  0
  8 19  1  0
 10 13  1  0
 12 22  1  0
 13  3  1  0
 14  6  1  0
 15 24  1  0
 15  4  1  0
 15 10  1  0
 16 21  1  0
 18 22  1  0
 18 16  1  0
 20 10  1  0
 21  2  1  0
 23 19  1  0
 23 14  1  0
M  END
$$$$

     RDKit          3D

  9  8  0  0  0  0  0  0  0  0999 V2000
   40.4000   35.8550   28.1230 C   0  0  0  0  0  0  0  0  0  0  0  0
   35.9260   34.4840   30.7810 C   0  0  0  0  0  0  0  0  0  0  0  0
   39.3440   34.6090   29.8250 C   0  0  0  0  0  0  0  0  0  0  0  0
   37.3810   34.2680   30.8780 C   0  0  0  0  0  0  0  0  0  0  0  0
   35.7830   33.1860   30.9550 N   0  0  0  0  0  0  0  0  0  0  0  0
   37.9870   34.7300   29.5710 C   0  0  0  0  0  0  0  0  0  0  0  0
   40.4850   34.6490   29.0340 C   0  0  0  0  0  0  0  0  0  0  0  0
   41.7700   36.0520   27.4690 C   0  0  0  0  0  0  0  0  0  0  0  0
   41.5930   36.9330   26.1410 C   0  0  0  0  0  0  0  0  0  0  0  0
  1  7  1  0
  2  4  1  0
  2  5  1  0
  6  3  1  0
  6  4  1  0
  7  3  1  0
  8  1  1  0
  9  8  1  0
M  END
$$$$

     RDKit          3D

 22 23  0  0  0  0  0  0  0  0999 V2000
   36.7960   31.4330   31.7020 N   0  0  0  0  0  0  0  0  0  0  0  0
   40.1100   35.4420   27.3820 C   0  0  0  0  0  0  0  0  0  0  0  0
   36.9060   30.7020   30.6020 O   0  0  0  0  0  0  0  0  0  0  0  0
   42.3970   34.4200   27.8630 N   0  0  0  0  0  0  0  0  0  0  0  0
   35.0680   34.5270   32.8070 C   0  0  0  0  0  0  0  0  0  0  0  0
   37.8100   36.2540   27.5220 C   0  0  0  0  0  0  0  0  0  0  0  0
   43.1650   36.3700   24.5060 C   0  0  0  0  0  0  0  0  0  0  0  0
   41.5560   35.2290   26.9180 C   0  0  0  0  0  0  0  0  0  0  0  0
   36.0920   34.8980   30.5470 C   0  0  0  0  0  0  0  0  0  0  0  0
   38.7710   35.1510   29.4330 C   0  0  0  0  0  0  0  0  0  0  0  0
   38.9890   36.1150   26.7830 C   0  0  0  0  0  0  0  0  0  0  0  0
   36.6220   33.5920   30.5740 C   0  0  0  0  0  0  0  0  0  0  0  0
   36.3150   35.9200   29.4790 C   0  0  0  0  0  0  0  0  0  0  0  0
   36.3400   32.7150   31.7330 C   0  0  0  0  0  0  0  0  0  0  0  0
   37.6490   35.7330   28.8170 C   0  0  0  0  0  0  0  0  0  0  0  0
   37.3970   30.7220   32.6480 N   0  0  0  0  0  0  0  0  0  0  0  0
   40.0110   35.0860   28.7560 C   0  0  0  0  0  0  0  0  0  0  0  0
   35.1350   35.3360   31.6310 C   0  0  0  0  0  0  0  0  0  0  0  0
   35.6230   33.2320   32.8360 C   0  0  0  0  0  0  0  0  0  0  0  0
   40.5020   36.3820   24.0990 C   0  0  0  0  0  0  0  0  0  0  0  0
   41.8510   35.7900   24.6940 C   0  0  0  0  0  0  0  0  0  0  0  0
   41.5790   34.5770   25.5380 C   0  0  0  0  0  0  0  0  0  0  0  0
  1 14  1  0
  1 16  1  0
  2 17  1  0
  3  1  1  0
  5 19  1  0
  6 15  2  0
  7 21  1  0
  8  2  1  0
  8  4  1  0
  9 12  2  0
  9 18  1  0
 11  2  2  0
 11  6  1  0
 12 14  1  0
 13  9  1  0
 14 19  2  0
 15 10  1  0
 15 13  1  0
 17 10  2  0
 18  5  2  0
 20 21  1  0
 21 22  1  0
 22  8  1  0
M  END
$$$$

     RDKit          3D

 21 21  0  0  0  0  0  0  0  0999 V2000
   37.5730   31.5190   31.7140 C   0  0  0  0  0  0  0  0  0  0  0  0
   38.1440   31.3430   36.4860 C   0  0  0  0  0  0  0  0  0  0  0  0
   42.4040   35.5560   27.0650 C   0  0  0  0  0  0  0  0  0  0  0  0
   39.6330   33.3870   28.9920 C   0  0  0  0  0  0  0  0  0  0  0  0
   38.5390   32.6280   33.7300 C   0  0  0  0  0  0  0  0  0  0  0  0
   40.8270   33.7030   28.0530 C   0  0  0  0  0  0  0  0  0  0  0  0
   36.2450   29.7150   33.7720 O   0  0  0  0  0  0  0  0  0  0  0  0
   37.1300   30.6950   34.3360 C   0  0  0  0  0  0  0  0  0  0  0  0
   41.8670   36.6990   26.5870 N   0  0  0  0  0  0  0  0  0  0  0  0
   39.3790   32.9610   30.4560 C   0  0  0  0  0  0  0  0  0  0  0  0
   38.8780   30.9200   37.7550 C   0  0  0  0  0  0  0  0  0  0  0  0
   40.7360   36.4610   27.1900 C   0  0  0  0  0  0  0  0  0  0  0  0
   38.0420   30.2130   35.4780 C   0  0  0  0  0  0  0  0  0  0  0  0
   38.8070   31.5430   30.7180 C   0  0  0  0  0  0  0  0  0  0  0  0
   41.3440   38.7030   25.8990 O   0  0  0  0  0  0  0  0  0  0  0  0
   43.2470   35.2280   26.4510 O   0  0  0  0  0  0  0  0  0  0  0  0
   41.4990   32.9410   27.5630 O   0  0  0  0  0  0  0  0  0  0  0  0
   41.2270   35.1860   27.9320 C   0  0  0  0  0  0  0  0  0  0  0  0
   38.3710   33.8930   33.1210 C   0  0  0  0  0  0  0  0  0  0  0  0
   42.5900   37.8630   26.2860 C   0  0  0  0  0  0  0  0  0  0  0  0
   37.9890   31.3300   33.2000 C   0  0  0  0  0  0  0  0  0  0  0  0
  2 11  1  0
  3 18  1  0
  4 10  1  0
  6  4  1  0
  8  7  1  0
  8 13  1  0
  9  3  1  0
  9 12  1  0
 10 14  1  0
 12 18  1  0
 13  2  1  0
 14  1  1  0
 15 20  1  0
 16  3  2  0
 17  6  2  0
 18  6  1  0
 19  5  1  0
 20  9  1  0
 21  1  1  0
 21  5  1  0
 21  8  1  0
M  END
$$$$

     RDKit          3D

  8  8  0  0  0  0  0  0  0  0999 V2000
   35.8130   33.4970   31.5730 C   0  0  0  0  0  0  0  0  0  0  0  0
   38.0830   30.8210   31.0080 C   0  0  0  0  0  0  0  0  0  0  0  0
   37.7160   33.4130   30.1080 C   0  0  0  0  0  0  0  0  0  0  0  0
   36.5780   35.5200   30.4810 C   0  0  0  0  0  0  0  0  0  0  0  0
   36.7810   32.8110   30.8830 C   0  0  0  0  0  0  0  0  0  0  0  0
   37.5730   34.7590   29.9050 C   0  0  0  0  0  0  0  0  0  0  0  0
   35.6900   34.8750   31.3370 C   0  0  0  0  0  0  0  0  0  0  0  0
   36.8110   31.4360   31.0700 O   0  0  0  0  0  0  0  0  0  0  0  0
  2  8  1  0
  3  5  1  0
  4  7  2  0
  5  8  1  0
  5  1  2  0
  6  3  2  0
  6  4  1  0
  7  1  1  0
M  END
$$$$

     RDKit          3D

 16 16  0  0  0  0  0  0  0  0999 V2000
   38.0150   31.4660   31.4080 C   0  0  0  0  0  0  0  0  0  0  0  0
   35.1540   35.6350   29.6420 C   0  0  0  0  0  0  0  0  0  0  0  0
   41.4340   34.2840   27.0110 Cl  0  0  0  0  0  0  0  0  0  0  0  0
   38.0070   30.2670   32.1570 C   0  0  0  0  0  0  0  0  0  0  0  0
   38.0800   36.3330   27.0320 C   0  0  0  0  0  0  0  0  0  0  0  0
   38.1700   35.0120   29.1890 C   0  0  0  0  0  0  0  0  0  0  0  0
   39.3330   34.5020   28.6770 C   0  0  0  0  0  0  0  0  0  0  0  0
   39.2880   35.8510   26.6010 C   0  0  0  0  0  0  0  0  0  0  0  0
   37.5960   35.8730   28.3580 C   0  0  0  0  0  0  0  0  0  0  0  0
   37.8580   33.8170   31.1620 N   0  0  0  0  0  0  0  0  0  0  0  0
   34.5820   36.0770   28.7960 N   0  0  0  0  0  0  0  0  0  0  0  0
   39.8820   34.9540   27.4910 C   0  0  0  0  0  0  0  0  0  0  0  0
   36.1240   35.3910   30.7860 C   0  0  0  0  0  0  0  0  0  0  0  0
   39.8880   33.5120   29.3310 O   0  0  0  0  0  0  0  0  0  0  0  0
   37.4660   34.7330   30.4260 C   0  0  0  0  0  0  0  0  0  0  0  0
   37.8110   32.8220   31.9850 C   0  0  0  0  0  0  0  0  0  0  0  0
  1 16  2  3
  1  4  1  0
  2 13  1  0
  3 12  1  0
  5  9  1  0
  6 15  1  0
  7  6  1  0
  7 14  1  0
  8  5  2  0
  8 12  1  0
  9  6  2  0
 10 16  1  0
 11  2  3  0
 12  7  2  0
 15 13  1  0
 15 10  1  0
M  END
$$$$

     RDKit          3D

  8  8  0  0  0  0  0  0  0  0999 V2000
   36.3460   33.8400   30.9290 C   0  0  0  0  0  0  0  0  0  0  0  0
   36.7660   34.7730   29.8220 C   0  0  0  0  0  0  0  0  0  0  0  0
   37.2820   32.6740   31.0480 C   0  0  0  0  0  0  0  0  0  0  0  0
   35.3320   35.3010   29.6730 C   0  0  0  0  0  0  0  0  0  0  0  0
   38.0350   33.9380   29.3780 C   0  0  0  0  0  0  0  0  0  0  0  0
   38.5020   33.0810   30.2360 C   0  0  0  0  0  0  0  0  0  0  0  0
   37.4510   36.0410   29.6820 O   0  0  0  0  0  0  0  0  0  0  0  0
   34.8800   36.1790   28.8360 N   0  0  0  0  0  0  0  0  0  0  0  0
  1  3  1  0
  2  1  1  0
  4  2  1  0
  5  2  1  0
  5  6  1  0
  6  3  1  0
  7  2  1  0
  8  4  2  0
M  END
$$$$

     RDKit          3D

 22 22  0  0  0  0  0  0  0  0999 V2000
   41.0860   36.0240   29.6550 O   0  0  0  0  0  0  0  0  0  0  0  0
   33.0980   33.8380   33.2690 C   0  0  0  0  0  0  0  0  0  0  0  0
   32.1560   35.6360   26.2430 O   0  0  0  0  0  0  0  0  0  0  0  0
   33.4090   35.7150   26.7830 C   0  0  0  0  0  0  0  0  0  0  0  0
   34.8380   34.2070   29.3920 C   0  0  0  0  0  0  0  0  0  0  0  0
   33.7140   35.0920   28.0000 C   0  0  0  0  0  0  0  0  0  0  0  0
   31.9650   36.4460   25.0580 C   0  0  0  0  0  0  0  0  0  0  0  0
   34.2940   36.3030   26.1380 O   0  0  0  0  0  0  0  0  0  0  0  0
   34.4100   33.0610   31.3440 C   0  0  0  0  0  0  0  0  0  0  0  0
   37.9590   33.3080   29.8970 C   0  0  0  0  0  0  0  0  0  0  0  0
   36.8170   33.4400   30.7740 C   0  0  0  0  0  0  0  0  0  0  0  0
   41.1670   35.4790   27.1500 C   0  0  0  0  0  0  0  0  0  0  0  0
   34.3400   33.6260   32.6050 C   0  0  0  0  0  0  0  0  0  0  0  0
   39.3430   33.6330   30.1550 C   0  0  0  0  0  0  0  0  0  0  0  0
   32.7970   33.1510   34.5630 C   0  0  0  0  0  0  0  0  0  0  0  0
   40.2220   33.5560   28.9100 C   0  0  0  0  0  0  0  0  0  0  0  0
   33.3880   34.3390   29.1710 O   0  0  0  0  0  0  0  0  0  0  0  0
   35.4570   33.3820   30.4820 C   0  0  0  0  0  0  0  0  0  0  0  0
   39.1170   35.7430   28.8940 O   0  0  0  0  0  0  0  0  0  0  0  0
   40.4330   35.2700   28.6280 S   0  0  0  0  0  0  0  0  0  0  0  0
   31.8680   33.8390   32.4590 C   0  0  0  0  0  0  0  0  0  0  0  0
   35.1650   34.6250   28.2030 C   0  0  0  0  0  0  0  0  0  0  0  0
  2 15  1  0
  3  4  1  0
  5 18  1  0
  6  4  1  0
  6 22  1  0
  6 17  1  0
  7  3  1  0
  8  4  2  0
  9 13  1  0
 10 14  1  0
 10 11  2  3
 12 20  1  0
 13  2  1  0
 16 14  1  0
 17  5  1  0
 18 11  1  0
 18  9  1  0
 20 19  2  0
 20 16  1  0
 20  1  2  0
 21  2  1  0
 22  5  1  0
M  END
$$$$
