
     RDKit          3D

 11 11  0  0  0  0  0  0  0  0999 V2000
   37.5960   36.4090   23.5940 O   0  0  0  0  0  0  0  0  0  0  0  0
   35.7310   38.0530   26.8480 C   0  0  0  0  0  0  0  0  0  0  0  0
   36.0830   36.5370   28.3650 N   0  0  0  0  0  0  0  0  0  0  0  0
   34.9460   38.3420   27.8690 N   0  0  0  0  0  0  0  0  0  0  0  0
   36.9730   36.6660   24.5610 C   0  0  0  0  0  0  0  0  0  0  0  0
   36.0610   39.1330   25.9480 C   0  0  0  0  0  0  0  0  0  0  0  0
   36.6340   37.2050   27.3090 C   0  0  0  0  0  0  0  0  0  0  0  0
   39.0880   36.5990   26.7660 N   0  0  0  0  0  0  0  0  0  0  0  0
   37.1770   35.9950   25.6170 O   0  0  0  0  0  0  0  0  0  0  0  0
   37.8710   36.7180   26.6490 C   0  0  0  0  0  0  0  0  0  0  0  0
   34.9520   37.1660   28.6810 C   0  0  0  0  0  0  0  0  0  0  0  0
  1  5  2  0
  2  6  1  0
  2  7  1  0
  2  4  1  0
  3 11  1  0
  4 11  1  0
  5  9  1  0
  7 10  1  0
  7  3  1  0
  9 10  1  0
 10  8  2  0
M  END
$$$$

     RDKit          3D

 10 10  0  0  0  0  0  0  0  0999 V2000
   38.6120   36.6790   24.5940 O   0  0  0  0  0  0  0  0  0  0  0  0
   37.2650   41.4940   22.1820 C   0  0  0  0  0  0  0  0  0  0  0  0
   37.2130   38.1150   23.7450 C   0  0  0  0  0  0  0  0  0  0  0  0
   37.5960   40.2540   22.9730 C   0  0  0  0  0  0  0  0  0  0  0  0
   38.2780   37.4900   23.9980 C   0  0  0  0  0  0  0  0  0  0  0  0
   36.5710   41.2460   21.0050 N   0  0  0  0  0  0  0  0  0  0  0  0
   38.0980   42.5750   20.3290 O   0  0  0  0  0  0  0  0  0  0  0  0
   36.4620   39.2340   23.1800 C   0  0  0  0  0  0  0  0  0  0  0  0
   38.3360   42.3170   21.7810 C   0  0  0  0  0  0  0  0  0  0  0  0
   36.9480   42.3500   20.1930 C   0  0  0  0  0  0  0  0  0  0  0  0
  2  4  1  0
  3  5  1  0
  4  8  1  0
  5  1  2  0
  6  2  1  0
  7  9  1  0
  8  3  1  0
  9  2  1  0
 10  7  1  0
 10  6  1  0
M  END
$$$$

     RDKit          3D

 11 10  0  0  0  0  0  0  0  0999 V2000
   40.6960   41.2750   23.7510 C   0  0  0  0  0  0  0  0  0  0  0  0
   38.2380   42.2360   24.3880 N   0  0  0  0  0  0  0  0  0  0  0  0
   38.1340   38.9270   20.7510 O   0  0  0  0  0  0  0  0  0  0  0  0
   39.9630   39.3970   22.4220 C   0  0  0  0  0  0  0  0  0  0  0  0
   38.5630   39.0490   21.7800 C   0  0  0  0  0  0  0  0  0  0  0  0
   41.8290   42.0230   23.3660 O   0  0  0  0  0  0  0  0  0  0  0  0
   38.9250   39.9530   24.7530 C   0  0  0  0  0  0  0  0  0  0  0  0
   39.4930   40.4360   23.4100 C   0  0  0  0  0  0  0  0  0  0  0  0
   41.5450   40.4330   24.5380 O   0  0  0  0  0  0  0  0  0  0  0  0
   40.7900   40.0940   21.4780 N   0  0  0  0  0  0  0  0  0  0  0  0
   38.9790   41.2570   25.5120 C   0  0  0  0  0  0  0  0  0  0  0  0
  1  9  1  0
  2 11  1  0
  3  5  2  0
  4 10  1  0
  4  8  1  0
  5  4  1  0
  6  1  2  0
  7 11  1  0
  8  1  1  0
  8  7  1  0
M  END
$$$$

     RDKit          3D

 10  9  0  0  0  0  0  0  0  0999 V2000
   37.0870   38.4450   23.8590 C   0  0  0  0  0  0  0  0  0  0  0  0
   38.8270   40.2660   24.7740 C   0  0  0  0  0  0  0  0  0  0  0  0
   37.8960   40.7680   24.1680 C   0  0  0  0  0  0  0  0  0  0  0  0
   34.6740   38.3090   25.0170 O   0  0  0  0  0  0  0  0  0  0  0  0
   36.7930   39.8480   23.3040 C   0  0  0  0  0  0  0  0  0  0  0  0
   35.1650   36.7720   23.1320 O   0  0  0  0  0  0  0  0  0  0  0  0
   37.7910   42.1370   23.5580 C   0  0  0  0  0  0  0  0  0  0  0  0
   35.5660   40.5460   23.6320 O   0  0  0  0  0  0  0  0  0  0  0  0
   36.4680   36.4320   25.2950 O   0  0  0  0  0  0  0  0  0  0  0  0
   35.7750   37.3960   24.3710 P   0  0  0  0  0  0  0  0  0  0  0  0
  1 10  1  0
  3  2  2  0
  5  8  1  0
  5  1  1  0
  5  3  1  0
  6 10  2  0
  7  3  1  0
 10  4  1  0
 10  9  1  0
M  END
$$$$

     RDKit          3D

 11 10  0  0  0  0  0  0  0  0999 V2000
   33.9040   35.2240   32.9220 C   0  0  0  0  0  0  0  0  0  0  0  0
   36.7280   36.0140   31.8670 C   0  0  0  0  0  0  0  0  0  0  0  0
   35.8740   37.1370   33.8850 N   0  0  0  0  0  0  0  0  0  0  0  0
   37.5290   38.3800   28.7150 O   0  0  0  0  0  0  0  0  0  0  0  0
   35.3240   34.7520   33.1880 C   0  0  0  0  0  0  0  0  0  0  0  0
   38.4470   36.7890   30.2880 C   0  0  0  0  0  0  0  0  0  0  0  0
   32.9960   34.5800   33.8100 O   0  0  0  0  0  0  0  0  0  0  0  0
   36.2830   35.9300   33.2950 C   0  0  0  0  0  0  0  0  0  0  0  0
   37.4870   36.1570   28.2110 O   0  0  0  0  0  0  0  0  0  0  0  0
   37.3130   36.1650   31.0130 C   0  0  0  0  0  0  0  0  0  0  0  0
   37.8520   37.0870   28.9230 C   0  0  0  0  0  0  0  0  0  0  0  0
  1  5  1  0
  1  7  1  0
  2  8  1  0
  4 11  1  0
  5  8  1  0
  6 10  1  0
  8  3  1  0
  9 11  2  0
 10  2  1  0
 11  6  1  0
M  END
$$$$

     RDKit          3D

 13 13  0  0  0  0  0  0  0  0999 V2000
   35.9120   37.7830   28.5970 C   0  0  0  0  0  0  0  0  0  0  0  0
   34.5840   37.7840   28.3970 O   0  0  0  0  0  0  0  0  0  0  0  0
   35.6200   32.7520   30.9390 N   0  0  0  0  0  0  0  0  0  0  0  0
   37.4600   35.5080   30.8380 C   0  0  0  0  0  0  0  0  0  0  0  0
   36.2930   36.8350   29.6430 C   0  0  0  0  0  0  0  0  0  0  0  0
   35.2940   34.0400   34.0930 N   0  0  0  0  0  0  0  0  0  0  0  0
   35.8680   33.8130   31.7320 C   0  0  0  0  0  0  0  0  0  0  0  0
   34.0250   37.3730   29.5000 N   0  0  0  0  0  0  0  0  0  0  0  0
   36.2120   35.1940   31.1430 C   0  0  0  0  0  0  0  0  0  0  0  0
   37.5570   36.5620   29.9330 C   0  0  0  0  0  0  0  0  0  0  0  0
   36.6760   38.4630   28.0200 O   0  0  0  0  0  0  0  0  0  0  0  0
   35.6740   33.9910   33.2000 C   0  0  0  0  0  0  0  0  0  0  0  0
   35.5910   36.0530   30.5240 N   0  0  0  0  0  0  0  0  0  0  0  0
  1  5  1  0
  2  1  1  0
  2  8  1  0
  4  9  1  0
  5 10  1  0
  5 13  2  0
  7  3  1  0
  7 12  1  0
  9  7  1  0
 10  4  2  0
 11  1  2  0
 12  6  3  0
 13  9  1  0
M  END
$$$$

     RDKit          3D

 11 11  0  0  0  0  0  0  0  0999 V2000
   38.0100   39.5470   26.3890 C   0  0  0  0  0  0  0  0  0  0  0  0
   37.4600   41.9590   26.3340 C   0  0  0  0  0  0  0  0  0  0  0  0
   38.4290   39.4360   25.1130 C   0  0  0  0  0  0  0  0  0  0  0  0
   39.8190   37.8300   24.1860 O   0  0  0  0  0  0  0  0  0  0  0  0
   39.1650   40.4870   24.3400 C   0  0  0  0  0  0  0  0  0  0  0  0
   37.7770   37.2380   24.5610 O   0  0  0  0  0  0  0  0  0  0  0  0
   37.3530   40.7390   26.8830 C   0  0  0  0  0  0  0  0  0  0  0  0
   38.6140   42.5180   25.7160 C   0  0  0  0  0  0  0  0  0  0  0  0
   39.3850   41.7670   24.7240 C   0  0  0  0  0  0  0  0  0  0  0  0
   38.5090   44.0210   25.6770 C   0  0  0  0  0  0  0  0  0  0  0  0
   38.6550   38.0590   24.6040 C   0  0  0  0  0  0  0  0  0  0  0  0
  1  7  1  0
  2  7  1  0
  3  1  2  0
  4 11  2  0
  5  9  2  0
  5  3  1  0
  6 11  1  0
  8  2  2  0
  9  8  1  0
 10  8  1  0
 11  3  1  0
M  END
$$$$

     RDKit          3D

 15 15  0  0  0  0  0  0  0  0999 V2000
   37.8160   37.4280   28.0020 O   0  0  0  0  0  0  0  0  0  0  0  0
   38.3880   37.6580   26.7260 C   0  0  0  0  0  0  0  0  0  0  0  0
   37.7760   36.9370   24.5590 O   0  0  0  0  0  0  0  0  0  0  0  0
   39.2430   38.8330   26.7080 C   0  0  0  0  0  0  0  0  0  0  0  0
   40.1820   40.9490   28.2430 C   0  0  0  0  0  0  0  0  0  0  0  0
   38.3160   38.2570   31.5520 C   0  0  0  0  0  0  0  0  0  0  0  0
   38.2990   38.0460   29.0880 C   0  0  0  0  0  0  0  0  0  0  0  0
   40.5020   43.2190   27.5720 C   0  0  0  0  0  0  0  0  0  0  0  0
   39.5380   39.6510   27.9360 C   0  0  0  0  0  0  0  0  0  0  0  0
   37.9580   36.5050   25.9120 C   0  0  0  0  0  0  0  0  0  0  0  0
   39.9580   39.1240   25.4740 C   0  0  0  0  0  0  0  0  0  0  0  0
   40.1290   41.8770   27.2560 O   0  0  0  0  0  0  0  0  0  0  0  0
   40.7010   41.2150   29.6110 C   0  0  0  0  0  0  0  0  0  0  0  0
   39.1380   38.9940   28.9980 N   0  0  0  0  0  0  0  0  0  0  0  0
   38.0260   37.5720   30.3800 O   0  0  0  0  0  0  0  0  0  0  0  0
  1  7  1  0
  2  1  1  0
  3 10  1  0
  4  2  2  0
  4  9  1  0
  5 13  1  0
  7 15  1  0
  9  5  1  0
  9 14  1  0
 10  2  1  0
 11  4  1  0
 12  8  1  0
 12  5  1  0
 14  7  2  0
 15  6  1  0
M  END
$$$$

     RDKit          3D

 13 13  0  0  0  0  0  0  0  0999 V2000
   40.0830   38.9450   24.3770 C   0  0  0  0  0  0  0  0  0  0  0  0
   38.6450   38.7220   24.8670 C   0  0  0  0  0  0  0  0  0  0  0  0
   38.0800   38.2720   29.1050 C   0  0  0  0  0  0  0  0  0  0  0  0
   37.7590   40.6990   23.6130 O   0  0  0  0  0  0  0  0  0  0  0  0
   37.5800   37.6580   26.7900 C   0  0  0  0  0  0  0  0  0  0  0  0
   36.3250   36.3040   28.6470 Cl  0  0  0  0  0  0  0  0  0  0  0  0
   38.6650   38.4580   26.3490 C   0  0  0  0  0  0  0  0  0  0  0  0
   39.3150   38.8940   28.7360 C   0  0  0  0  0  0  0  0  0  0  0  0
   38.0860   37.4370   24.0620 C   0  0  0  0  0  0  0  0  0  0  0  0
   37.0410   40.5860   25.6310 O   0  0  0  0  0  0  0  0  0  0  0  0
   37.7770   40.0060   24.6200 C   0  0  0  0  0  0  0  0  0  0  0  0
   39.5200   39.0280   27.3370 C   0  0  0  0  0  0  0  0  0  0  0  0
   37.3030   37.6290   28.1550 C   0  0  0  0  0  0  0  0  0  0  0  0
  1  2  1  0
  2  7  1  0
  4 11  2  0
  5 13  1  0
  7  5  2  0
  7 12  1  0
  8  3  1  0
  9  2  1  0
 11  2  1  0
 11 10  1  0
 12  8  2  0
 13  6  1  0
 13  3  2  0
M  END
$$$$

     RDKit          3D

 19 22  0  0  0  0  0  0  0  0999 V2000
   37.6090   38.3930   28.6050 C   0  0  0  0  0  0  0  0  0  0  0  0
   38.5280   36.3950   31.1960 C   0  0  0  0  0  0  0  0  0  0  0  0
   37.4310   37.3880   25.9580 N   0  0  0  0  0  0  0  0  0  0  0  0
   38.4420   38.5690   22.6700 C   0  0  0  0  0  0  0  0  0  0  0  0
   36.4710   35.5800   29.9190 C   0  0  0  0  0  0  0  0  0  0  0  0
   37.9500   38.0940   27.1390 C   0  0  0  0  0  0  0  0  0  0  0  0
   38.5360   36.2370   32.6170 N   0  0  0  0  0  0  0  0  0  0  0  0
   38.4380   39.0400   24.9680 C   0  0  0  0  0  0  0  0  0  0  0  0
   39.1300   39.3480   23.7050 N   0  0  0  0  0  0  0  0  0  0  0  0
   36.4990   36.2660   28.6210 N   0  0  0  0  0  0  0  0  0  0  0  0
   37.0370   36.4720   30.8670 C   0  0  0  0  0  0  0  0  0  0  0  0
   37.5140   37.6190   23.4000 C   0  0  0  0  0  0  0  0  0  0  0  0
   39.9420   40.3130   23.1670 C   0  0  0  0  0  0  0  0  0  0  0  0
   37.6800   37.1120   28.4250 C   0  0  0  0  0  0  0  0  0  0  0  0
   36.3840   36.3360   32.1450 N   0  0  0  0  0  0  0  0  0  0  0  0
   37.1410   35.8830   34.3350 N   0  0  0  0  0  0  0  0  0  0  0  0
   37.1340   35.6250   32.8720 C   0  0  0  0  0  0  0  0  0  0  0  0
   37.6470   37.9320   24.7600 C   0  0  0  0  0  0  0  0  0  0  0  0
   38.3670   39.4510   26.3230 C   0  0  0  0  0  0  0  0  0  0  0  0
  2  7  1  0
  3  6  1  0
  4 12  1  0
  4  9  1  0
  6 19  1  0
  6 14  1  0
  6  1  1  0
  7 17  1  0
  8 19  1  0
  9  8  1  0
 10  5  1  0
 11  5  1  0
 11  2  1  0
 11 15  1  0
 12 18  1  0
 13  9  1  0
 14  1  1  0
 14 10  1  0
 15 17  1  0
 17 16  1  0
 18  8  1  0
 18  3  2  0
M  END
$$$$

     RDKit          3D

 11 11  0  0  0  0  0  0  0  0999 V2000
   37.8350   39.6490   24.1140 C   0  0  0  0  0  0  0  0  0  0  0  0
   36.3610   37.5510   24.0000 C   0  0  0  0  0  0  0  0  0  0  0  0
   37.4140   38.3540   24.8660 C   0  0  0  0  0  0  0  0  0  0  0  0
   41.0430   41.2960   24.6540 C   0  0  0  0  0  0  0  0  0  0  0  0
   40.3300   39.7300   24.5880 S   0  0  0  0  0  0  0  0  0  0  0  0
   36.8010   39.9380   23.0440 C   0  0  0  0  0  0  0  0  0  0  0  0
   38.6060   37.6030   25.4700 C   0  0  0  0  0  0  0  0  0  0  0  0
   35.0760   38.4140   23.9610 C   0  0  0  0  0  0  0  0  0  0  0  0
   39.2330   39.8000   23.4490 C   0  0  0  0  0  0  0  0  0  0  0  0
   38.5460   36.2570   25.1010 O   0  0  0  0  0  0  0  0  0  0  0  0
   35.4180   39.9080   23.7050 C   0  0  0  0  0  0  0  0  0  0  0  0
  1  9  1  0
  1  3  1  0
  2  3  1  0
  3  7  1  0
  5  4  1  0
  6 11  1  0
  6  1  1  0
  8  2  1  0
  9  5  1  0
 10  7  1  0
 11  8  1  0
M  END
$$$$

     RDKit          3D

  5  4  0  0  0  0  0  0  0  0999 V2000
   36.7170   37.5560   22.5830 C   0  0  0  0  0  0  0  0  0  0  0  0
   37.9600   38.3660   22.5190 C   0  0  0  0  0  0  0  0  0  0  0  0
   36.2100   36.6250   21.9530 O   0  0  0  0  0  0  0  0  0  0  0  0
   35.8660   38.3770   23.4890 O   0  0  0  0  0  0  0  0  0  0  0  0
   37.1440   39.5770   22.4260 O   0  0  0  0  0  0  0  0  0  0  0  0
  1  4  1  0
  2  1  1  0
  3  1  2  0
  5  2  1  0
M  END
$$$$

     RDKit          3D

 25 28  0  0  0  0  0  0  0  0999 V2000
   36.8490   34.6310   35.2970 C   0  0  0  0  0  0  0  0  0  0  0  0
   38.5360   39.2880   28.0470 C   0  0  0  0  0  0  0  0  0  0  0  0
   38.2250   36.0430   29.9790 C   0  0  0  0  0  0  0  0  0  0  0  0
   37.2290   35.3960   32.7070 C   0  0  0  0  0  0  0  0  0  0  0  0
   37.9830   41.9380   25.1240 C   0  0  0  0  0  0  0  0  0  0  0  0
   36.6770   35.0850   33.8880 C   0  0  0  0  0  0  0  0  0  0  0  0
   37.5970   45.1500   23.4100 N   0  0  0  0  0  0  0  0  0  0  0  0
   39.6130   42.7710   26.9310 C   0  0  0  0  0  0  0  0  0  0  0  0
   37.0450   40.0520   24.6350 N   0  0  0  0  0  0  0  0  0  0  0  0
   37.7150   40.6530   25.5980 C   0  0  0  0  0  0  0  0  0  0  0  0
   38.1300   40.0880   26.8000 N   0  0  0  0  0  0  0  0  0  0  0  0
   39.4790   39.8440   28.7980 O   0  0  0  0  0  0  0  0  0  0  0  0
   37.8730   43.7140   23.8430 C   0  0  0  0  0  0  0  0  0  0  0  0
   37.9140   34.2270   32.1480 C   0  0  0  0  0  0  0  0  0  0  0  0
   38.3390   36.8150   28.7920 C   0  0  0  0  0  0  0  0  0  0  0  0
   38.0060   33.2520   33.2810 C   0  0  0  0  0  0  0  0  0  0  0  0
   38.8410   42.9370   25.6770 C   0  0  0  0  0  0  0  0  0  0  0  0
   38.7530   43.9200   24.8040 N   0  0  0  0  0  0  0  0  0  0  0  0
   38.0010   37.0070   31.0880 C   0  0  0  0  0  0  0  0  0  0  0  0
   37.9940   37.9330   28.3000 C   0  0  0  0  0  0  0  0  0  0  0  0
   37.1090   36.5840   32.0310 N   0  0  0  0  0  0  0  0  0  0  0  0
   36.9610   33.6310   34.2450 C   0  0  0  0  0  0  0  0  0  0  0  0
   38.6200   38.0510   31.2090 O   0  0  0  0  0  0  0  0  0  0  0  0
   37.4460   42.1840   23.8850 C   0  0  0  0  0  0  0  0  0  0  0  0
   36.9250   40.8220   23.4030 C   0  0  0  0  0  0  0  0  0  0  0  0
  2 20  1  0
  2 12  2  0
  3 19  1  0
  4 21  1  0
  4  6  1  0
  5 10  1  0
  5 17  2  0
  6 22  1  0
  6  1  1  0
  9 10  2  0
 10 11  1  0
 11  2  1  0
 13  7  1  0
 13 24  1  0
 13 18  1  0
 14  4  1  0
 14 16  1  0
 15  3  1  0
 17  8  1  0
 18 17  1  0
 19 23  2  0
 19 21  1  0
 20 15  1  0
 22 16  1  0
 22  1  1  0
 24 25  1  0
 24  5  1  0
 25  9  1  0
M  END
$$$$

     RDKit          3D

  6  5  0  0  0  0  0  0  0  0999 V2000
   35.3990   35.8240   27.7850 C   0  0  0  0  0  0  0  0  0  0  0  0
   36.7540   36.9210   29.3630 C   0  0  0  0  0  0  0  0  0  0  0  0
   36.6030   37.7210   26.8930 C   0  0  0  0  0  0  0  0  0  0  0  0
   37.2790   37.0190   26.1620 O   0  0  0  0  0  0  0  0  0  0  0  0
   36.8350   38.9130   26.7010 O   0  0  0  0  0  0  0  0  0  0  0  0
   35.9130   37.1780   28.1260 C   0  0  0  0  0  0  0  0  0  0  0  0
  1  6  1  0
  3  6  1  0
  4  3  2  0
  5  3  1  0
  6  2  1  0
M  END
$$$$

     RDKit          3D

 18 18  0  0  0  0  0  0  0  0999 V2000
   38.4030   39.3880   27.4870 C   0  0  0  0  0  0  0  0  0  0  0  0
   37.9030   37.3890   30.3160 C   0  0  0  0  0  0  0  0  0  0  0  0
   37.3970   37.0330   27.5160 C   0  0  0  0  0  0  0  0  0  0  0  0
   38.1270   36.8000   31.6310 C   0  0  0  0  0  0  0  0  0  0  0  0
   36.7590   35.4310   29.5170 C   0  0  0  0  0  0  0  0  0  0  0  0
   36.8020   35.9120   25.4640 O   0  0  0  0  0  0  0  0  0  0  0  0
   38.1390   38.2730   27.5490 N   0  0  0  0  0  0  0  0  0  0  0  0
   38.1660   38.7150   30.1260 O   0  0  0  0  0  0  0  0  0  0  0  0
   39.6250   39.9740   26.2530 C   0  0  0  0  0  0  0  0  0  0  0  0
   37.6390   36.7790   25.9010 C   0  0  0  0  0  0  0  0  0  0  0  0
   38.4190   37.2540   24.5810 C   0  0  0  0  0  0  0  0  0  0  0  0
   36.6590   35.2240   30.8870 C   0  0  0  0  0  0  0  0  0  0  0  0
   39.4670   38.2610   24.9020 C   0  0  0  0  0  0  0  0  0  0  0  0
   37.4400   35.7110   31.9160 C   0  0  0  0  0  0  0  0  0  0  0  0
   40.3430   40.6590   25.0680 C   0  0  0  0  0  0  0  0  0  0  0  0
   39.6250   40.8720   27.1670 C   0  0  0  0  0  0  0  0  0  0  0  0
   35.9400   33.5700   31.3940 Cl  0  0  0  0  0  0  0  0  0  0  0  0
   37.4190   36.6420   29.1830 C   0  0  0  0  0  0  0  0  0  0  0  0
  1  7  1  0
  2  8  1  0
  2  4  1  0
  3 10  1  0
  3  7  1  0
  4 14  2  0
  5 12  1  0
  6 10  2  0
  9 16  1  0
  9  1  1  0
 11 13  1  0
 11 10  1  0
 12 17  1  0
 12 14  1  0
 15  9  1  0
 18  3  1  0
 18  5  1  0
 18  2  1  0
M  END
$$$$

     RDKit          3D

  1  0  0  0  0  0  0  0  0  0999 V2000
    9.4110 -183.2200   49.3180 O   0  0  0  0  0  0  0  0  0  0  0  0
M  END
$$$$

     RDKit          3D

 19 20  0  0  0  0  0  0  0  0999 V2000
   37.3630   36.9360   31.1090 C   0  0  0  0  0  0  0  0  0  0  0  0
   38.2050   40.5710   27.1060 C   0  0  0  0  0  0  0  0  0  0  0  0
   37.7150   37.1150   29.8560 C   0  0  0  0  0  0  0  0  0  0  0  0
   38.6990   38.5920   28.4830 C   0  0  0  0  0  0  0  0  0  0  0  0
   38.3880   38.2790   29.7370 C   0  0  0  0  0  0  0  0  0  0  0  0
   37.9600   37.8810   31.8250 C   0  0  0  0  0  0  0  0  0  0  0  0
   37.8080   38.5560   33.2520 C   0  0  0  0  0  0  0  0  0  0  0  0
   40.8160   40.8040   25.1270 C   0  0  0  0  0  0  0  0  0  0  0  0
   38.9320   41.5100   24.6380 P   0  0  0  0  0  0  0  0  0  0  0  0
   39.2980   42.7850   24.3120 O   0  0  0  0  0  0  0  0  0  0  0  0
   41.6670   42.6650   29.3270 C   0  0  0  0  0  0  0  0  0  0  0  0
   40.6530   40.9210   26.5800 N   0  0  0  0  0  0  0  0  0  0  0  0
   41.9300   41.4450   27.2250 C   0  0  0  0  0  0  0  0  0  0  0  0
   37.8160   40.9820   25.7700 C   0  0  0  0  0  0  0  0  0  0  0  0
   39.9630   39.3690   28.3680 N   0  0  0  0  0  0  0  0  0  0  0  0
   42.0810   41.3060   28.8890 C   0  0  0  0  0  0  0  0  0  0  0  0
   39.7040   40.3250   27.2750 C   0  0  0  0  0  0  0  0  0  0  0  0
   38.8370   40.5910   23.2240 O   0  0  0  0  0  0  0  0  0  0  0  0
   38.7440   38.7540   30.9520 C   0  0  0  0  0  0  0  0  0  0  0  0
  1  6  1  0
  2 17  1  0
  3  1  1  0
  5  4  1  0
  5  3  1  0
  5 19  1  0
  6  7  1  0
  8 12  1  0
  9 18  2  0
  9  8  1  0
  9 14  1  0
 10  9  1  0
 12 13  1  0
 12 17  1  0
 13 16  1  0
 14  2  1  0
 15  4  1  0
 16 11  1  0
 17 15  1  0
 19  6  1  0
M  END
$$$$

     RDKit          3D

 33 35  0  0  0  0  0  0  0  0999 V2000
   40.3400   38.6150   22.7100 C   0  0  0  0  0  0  0  0  0  0  0  0
   34.0640   33.4030   32.2210 C   0  0  0  0  0  0  0  0  0  0  0  0
   35.9950   35.2000   35.9470 C   0  0  0  0  0  0  0  0  0  0  0  0
   35.4450   34.9480   33.6050 C   0  0  0  0  0  0  0  0  0  0  0  0
   36.2560   40.0490   20.7600 C   0  0  0  0  0  0  0  0  0  0  0  0
   40.0690   41.0850   22.8710 C   0  0  0  0  0  0  0  0  0  0  0  0
   37.6170   36.1280   28.2460 C   0  0  0  0  0  0  0  0  0  0  0  0
   33.3490   35.3750   34.9420 C   0  0  0  0  0  0  0  0  0  0  0  0
   36.3380   37.1530   26.4270 N   0  0  0  0  0  0  0  0  0  0  0  0
   35.6550   38.3300   24.4510 N   0  0  0  0  0  0  0  0  0  0  0  0
   35.7310   35.7940   32.3350 C   0  0  0  0  0  0  0  0  0  0  0  0
   41.8020   38.9830   22.5380 C   0  0  0  0  0  0  0  0  0  0  0  0
   35.0680   38.2080   22.1140 C   0  0  0  0  0  0  0  0  0  0  0  0
   34.5880   33.7900   33.4170 O   0  0  0  0  0  0  0  0  0  0  0  0
   42.0540   40.4030   22.1630 C   0  0  0  0  0  0  0  0  0  0  0  0
   36.7690   38.9810   24.1780 N   0  0  0  0  0  0  0  0  0  0  0  0
   41.2450   41.3180   23.0290 C   0  0  0  0  0  0  0  0  0  0  0  0
   34.8940   37.8250   23.4600 C   0  0  0  0  0  0  0  0  0  0  0  0
   33.9290   37.9370   21.1720 C   0  0  0  0  0  0  0  0  0  0  0  0
   34.9300   35.6190   34.9120 C   0  0  0  0  0  0  0  0  0  0  0  0
   35.0960   37.0130   34.7220 F   0  0  0  0  0  0  0  0  0  0  0  0
   41.9310   42.5020   23.6790 C   0  0  0  0  0  0  0  0  0  0  0  0
   37.4160   36.1660   29.7990 C   0  0  0  0  0  0  0  0  0  0  0  0
   37.3120   37.4850   27.5010 C   0  0  0  0  0  0  0  0  0  0  0  0
   35.4820   38.1280   25.8600 C   0  0  0  0  0  0  0  0  0  0  0  0
   42.9580   42.5270   22.4950 C   0  0  0  0  0  0  0  0  0  0  0  0
   37.0430   39.3400   22.9340 C   0  0  0  0  0  0  0  0  0  0  0  0
   36.1360   39.1320   21.8940 C   0  0  0  0  0  0  0  0  0  0  0  0
   39.5040   39.7400   23.1510 C   0  0  0  0  0  0  0  0  0  0  0  0
   36.6360   36.4130   31.1530 C   0  0  0  0  0  0  0  0  0  0  0  0
   43.2780   41.0980   22.1040 O   0  0  0  0  0  0  0  0  0  0  0  0
   34.9400   39.1190   26.5750 N   0  0  0  0  0  0  0  0  0  0  0  0
   38.1800   39.9270   22.8010 N   0  0  0  0  0  0  0  0  0  0  0  0
  1 29  1  0
  2 14  1  0
  4 11  1  0
  4 20  1  0
  6 29  1  0
  7 23  1  0
  9 24  1  0
 10 25  1  0
 12  1  1  0
 13 18  2  0
 14  4  1  0
 15 12  1  0
 15 17  1  0
 16 10  1  0
 17  6  1  0
 17 22  1  0
 18 10  1  0
 19 13  1  0
 20  8  1  0
 20  3  1  0
 21 20  1  0
 23 30  1  0
 24  7  1  0
 25  9  1  0
 25 32  2  0
 26 22  1  0
 27 16  2  0
 28  5  1  0
 28 13  1  0
 28 27  1  0
 29 33  1  0
 30 11  1  0
 31 15  1  0
 31 26  1  0
 33 27  1  0
M  END
$$$$

     RDKit          3D

 12 11  0  0  0  0  0  0  0  0999 V2000
   36.9880   36.9460   30.6210 C   0  0  0  0  0  0  0  0  0  0  0  0
   34.7140   36.7550   31.5400 O   0  0  0  0  0  0  0  0  0  0  0  0
   37.8540   37.9010   23.9870 O   0  0  0  0  0  0  0  0  0  0  0  0
   36.0040   35.6860   28.4550 C   0  0  0  0  0  0  0  0  0  0  0  0
   35.4730   37.1320   30.3820 C   0  0  0  0  0  0  0  0  0  0  0  0
   35.0050   36.2420   29.3420 N   0  0  0  0  0  0  0  0  0  0  0  0
   37.7650   36.9930   24.9700 C   0  0  0  0  0  0  0  0  0  0  0  0
   37.3410   37.3170   27.2190 C   0  0  0  0  0  0  0  0  0  0  0  0
   37.6430   39.4770   26.1320 C   0  0  0  0  0  0  0  0  0  0  0  0
   37.5280   37.9610   26.1490 C   0  0  0  0  0  0  0  0  0  0  0  0
   37.2580   36.4460   28.1810 C   0  0  0  0  0  0  0  0  0  0  0  0
   37.5210   36.6070   31.8000 C   0  0  0  0  0  0  0  0  0  0  0  0
  1 12  2  0
  3  7  1  0
  4  6  1  0
  5  1  1  0
  5  2  1  0
  6  5  1  0
  7 10  1  0
  8 11  2  0
  9 10  1  0
 10  8  2  0
 11  4  1  0
M  END
$$$$

     RDKit          3D

 26 27  0  0  0  0  0  0  0  0999 V2000
   31.9250   36.3630   31.3990 C   0  0  0  0  0  0  0  0  0  0  0  0
   36.7070   39.9780   23.7260 C   0  0  0  0  0  0  0  0  0  0  0  0
   38.3660   42.0830   24.8700 O   0  0  0  0  0  0  0  0  0  0  0  0
   39.0490   40.5730   22.8000 C   0  0  0  0  0  0  0  0  0  0  0  0
   37.1250   39.0050   24.5370 N   0  0  0  0  0  0  0  0  0  0  0  0
   37.9250   37.0580   23.9110 C   0  0  0  0  0  0  0  0  0  0  0  0
   37.8780   37.0160   25.4130 C   0  0  0  0  0  0  0  0  0  0  0  0
   37.7340   38.8070   23.7530 C   0  0  0  0  0  0  0  0  0  0  0  0
   33.5900   33.1200   31.0220 O   0  0  0  0  0  0  0  0  0  0  0  0
   36.9780   37.6280   27.9750 N   0  0  0  0  0  0  0  0  0  0  0  0
   36.7590   39.8380   27.3900 O   0  0  0  0  0  0  0  0  0  0  0  0
   37.2200   38.3160   25.7810 C   0  0  0  0  0  0  0  0  0  0  0  0
   34.8880   36.5480   28.4910 C   0  0  0  0  0  0  0  0  0  0  0  0
   34.7860   35.2010   29.1190 C   0  0  0  0  0  0  0  0  0  0  0  0
   35.8680   37.4860   28.9280 C   0  0  0  0  0  0  0  0  0  0  0  0
   31.2350   34.4360   32.7910 C   0  0  0  0  0  0  0  0  0  0  0  0
   37.9850   42.0490   23.3210 S   0  0  0  0  0  0  0  0  0  0  0  0
   33.2020   34.1990   30.8720 C   0  0  0  0  0  0  0  0  0  0  0  0
   32.3670   35.1250   32.0270 C   0  0  0  0  0  0  0  0  0  0  0  0
   36.4070   36.9370   30.1290 O   0  0  0  0  0  0  0  0  0  0  0  0
   36.6130   41.4650   23.3140 C   0  0  0  0  0  0  0  0  0  0  0  0
   35.9920   42.2940   24.4760 C   0  0  0  0  0  0  0  0  0  0  0  0
   33.8420   35.2840   30.1920 N   0  0  0  0  0  0  0  0  0  0  0  0
   39.0520   39.0750   23.1180 C   0  0  0  0  0  0  0  0  0  0  0  0
   36.9960   38.6820   27.0390 C   0  0  0  0  0  0  0  0  0  0  0  0
   33.4480   35.2430   32.9520 F   0  0  0  0  0  0  0  0  0  0  0  0
  1 19  1  0
  4 24  1  0
  4 17  1  0
  5  2  1  0
  5 12  1  0
  6  7  1  0
  7 12  1  0
  8 24  1  0
  8  6  1  0
  8  5  1  0
 10 15  1  0
 12 25  1  0
 13 15  1  0
 13 14  1  0
 14 23  1  0
 15 20  1  0
 17  3  2  0
 18  9  2  0
 18 19  1  0
 19 16  1  0
 19 26  1  0
 21 17  1  0
 21  2  1  0
 21 22  1  0
 23 18  1  0
 25 11  2  0
 25 10  1  0
M  END
$$$$
