
     RDKit          3D

 23 24  0  0  0  0  0  0  0  0999 V2000
   38.9250   38.0150   25.7740 C   0  0  0  0  0  0  0  0  0  0  0  0
   37.5800   38.1060   25.0370 C   0  0  0  0  0  0  0  0  0  0  0  0
   35.5060   35.6980   32.5050 C   0  0  0  0  0  0  0  0  0  0  0  0
   35.9390   38.1410   26.9070 C   0  0  0  0  0  0  0  0  0  0  0  0
   41.0300   41.4770   26.2090 C   0  0  0  0  0  0  0  0  0  0  0  0
   38.8090   40.3490   25.2410 C   0  0  0  0  0  0  0  0  0  0  0  0
   36.9670   35.9570   30.8900 N   0  0  0  0  0  0  0  0  0  0  0  0
   36.7200   38.6640   25.9940 O   0  0  0  0  0  0  0  0  0  0  0  0
   39.9050   38.9090   26.6990 C   0  0  0  0  0  0  0  0  0  0  0  0
   39.6450   41.5520   25.4970 C   0  0  0  0  0  0  0  0  0  0  0  0
   37.7480   34.4540   32.8080 C   0  0  0  0  0  0  0  0  0  0  0  0
   34.5830   38.4020   26.8280 C   0  0  0  0  0  0  0  0  0  0  0  0
   36.7490   35.3620   32.1260 N   0  0  0  0  0  0  0  0  0  0  0  0
   40.4750   38.6620   27.7230 O   0  0  0  0  0  0  0  0  0  0  0  0
   35.4560   37.1420   29.1160 C   0  0  0  0  0  0  0  0  0  0  0  0
   36.3060   37.2940   27.9880 C   0  0  0  0  0  0  0  0  0  0  0  0
   41.0290   41.7430   27.7600 C   0  0  0  0  0  0  0  0  0  0  0  0
   37.3540   36.6790   24.8410 N   0  0  0  0  0  0  0  0  0  0  0  0
   39.5470   39.2460   25.6730 N   0  0  0  0  0  0  0  0  0  0  0  0
   34.8750   36.0460   31.3760 N   0  0  0  0  0  0  0  0  0  0  0  0
   33.8180   38.2210   27.9030 C   0  0  0  0  0  0  0  0  0  0  0  0
   34.1970   37.5800   29.0480 N   0  0  0  0  0  0  0  0  0  0  0  0
   35.7820   36.4180   30.4620 C   0  0  0  0  0  0  0  0  0  0  0  0
  2 18  1  0
  2  1  1  0
  2  8  1  0
  4 16  1  0
  5 17  1  0
  6 10  1  0
  6 19  1  0
  7 13  1  0
  8  4  1  0
  9 14  1  0
 10  5  1  0
 12  4  2  0
 12 21  1  0
 13  3  1  0
 13 11  1  0
 15 23  1  0
 16 15  2  0
 19  1  1  0
 19  9  1  0
 20  3  1  0
 21 22  2  0
 22 15  1  0
 23  7  2  0
 23 20  1  0
M  END
$$$$

     RDKit          3D

 13 13  0  0  0  0  0  0  0  0999 V2000
   33.6190   34.8010   30.7750 C   0  0  0  0  0  0  0  0  0  0  0  0
   36.3770   36.8620   26.6850 C   0  0  0  0  0  0  0  0  0  0  0  0
   33.9060   38.3580   24.8330 N   0  0  0  0  0  0  0  0  0  0  0  0
   35.3460   37.3710   27.5210 C   0  0  0  0  0  0  0  0  0  0  0  0
   34.2440   35.3850   28.4190 C   0  0  0  0  0  0  0  0  0  0  0  0
   37.4510   36.1270   26.9320 N   0  0  0  0  0  0  0  0  0  0  0  0
   34.7500   33.4950   30.3000 C   0  0  0  0  0  0  0  0  0  0  0  0
   33.8360   34.5800   29.3490 C   0  0  0  0  0  0  0  0  0  0  0  0
   34.3680   36.9080   28.2390 C   0  0  0  0  0  0  0  0  0  0  0  0
   37.0530   37.3850   24.2880 N   0  0  0  0  0  0  0  0  0  0  0  0
   37.2010   37.9320   22.9760 C   0  0  0  0  0  0  0  0  0  0  0  0
   36.1940   37.9780   25.3020 C   0  0  0  0  0  0  0  0  0  0  0  0
   35.1960   38.8530   24.4200 C   0  0  0  0  0  0  0  0  0  0  0  0
  2  6  2  0
  2  4  1  0
  4  9  2  3
  5  8  1  0
  7  1  1  0
  8  7  1  0
  8  1  1  0
  9  5  1  0
 10 12  1  0
 11 10  1  0
 12 13  1  0
 12  2  1  0
 13  3  1  0
M  END
$$$$

     RDKit          3D

 16 16  0  0  0  0  0  0  0  0999 V2000
   34.2390   38.6330   27.8520 N   0  0  0  0  0  0  0  0  0  0  0  0
   38.1500   35.4530   30.4900 C   0  0  0  0  0  0  0  0  0  0  0  0
   32.0040   34.2150   29.8970 O   0  0  0  0  0  0  0  0  0  0  0  0
   36.5230   36.4610   28.9500 C   0  0  0  0  0  0  0  0  0  0  0  0
   33.3310   32.3320   30.4860 C   0  0  0  0  0  0  0  0  0  0  0  0
   32.2600   32.0850   31.5000 O   0  0  0  0  0  0  0  0  0  0  0  0
   34.4490   34.6220   29.8970 C   0  0  0  0  0  0  0  0  0  0  0  0
   34.7180   37.9110   28.5890 O   0  0  0  0  0  0  0  0  0  0  0  0
   36.7740   35.5020   29.9140 C   0  0  0  0  0  0  0  0  0  0  0  0
   34.1800   35.7810   29.1760 C   0  0  0  0  0  0  0  0  0  0  0  0
   33.6080   37.7720   26.8570 C   0  0  0  0  0  0  0  0  0  0  0  0
   35.1190   36.7420   28.8290 C   0  0  0  0  0  0  0  0  0  0  0  0
   37.5950   37.1610   28.2640 O   0  0  0  0  0  0  0  0  0  0  0  0
   30.9690   33.2340   29.7230 C   0  0  0  0  0  0  0  0  0  0  0  0
   33.3550   33.6680   30.1460 C   0  0  0  0  0  0  0  0  0  0  0  0
   35.7800   34.5950   30.3360 C   0  0  0  0  0  0  0  0  0  0  0  0
  1  8  1  0
  3 15  1  0
  4  9  1  0
  5  6  1  0
  7 15  1  0
  7 16  1  0
  8 12  1  0
  9 16  2  0
  9  2  1  0
 10  7  2  0
 11  1  1  0
 12  4  2  0
 12 10  1  0
 13  4  1  0
 14  3  1  0
 15  5  1  0
M  END
$$$$

     RDKit          3D

  8  7  0  0  0  0  0  0  0  0999 V2000
   34.7640   39.7370   21.1060 O   0  0  0  0  0  0  0  0  0  0  0  0
   34.4340   39.6250   23.1700 O   0  0  0  0  0  0  0  0  0  0  0  0
   36.4510   38.6730   22.4310 C   0  0  0  0  0  0  0  0  0  0  0  0
   38.7940   39.4280   22.8830 C   0  0  0  0  0  0  0  0  0  0  0  0
   35.1110   39.2830   22.1140 C   0  0  0  0  0  0  0  0  0  0  0  0
   38.9820   39.0830   24.3900 O   0  0  0  0  0  0  0  0  0  0  0  0
   39.4590   40.6810   22.7460 O   0  0  0  0  0  0  0  0  0  0  0  0
   37.3080   39.8100   23.0050 C   0  0  0  0  0  0  0  0  0  0  0  0
  1  5  2  0
  3  8  1  0
  4  8  1  0
  4  6  1  0
  5  3  1  0
  5  2  1  0
  7  4  1  0
M  END
$$$$

     RDKit          3D

 10 10  0  0  0  0  0  0  0  0999 V2000
   36.4370   37.6170   23.4890 C   0  0  0  0  0  0  0  0  0  0  0  0
   34.8460   41.2150   24.2120 C   0  0  0  0  0  0  0  0  0  0  0  0
   36.7790   40.6310   22.8470 C   0  0  0  0  0  0  0  0  0  0  0  0
   36.8640   40.6830   24.3100 O   0  0  0  0  0  0  0  0  0  0  0  0
   35.9080   40.2200   23.8720 C   0  0  0  0  0  0  0  0  0  0  0  0
   37.7640   37.5560   23.7170 N   0  0  0  0  0  0  0  0  0  0  0  0
   34.3430   38.7130   23.0340 N   0  0  0  0  0  0  0  0  0  0  0  0
   34.3720   38.1510   21.8660 O   0  0  0  0  0  0  0  0  0  0  0  0
   33.2800   39.3090   23.2040 O   0  0  0  0  0  0  0  0  0  0  0  0
   35.5340   38.7750   23.9010 C   0  0  0  0  0  0  0  0  0  0  0  0
  1  6  1  0
  3  5  1  0
  3  4  1  0
  5 10  1  0
  5  2  1  0
  5  4  1  0
  7  9  2  0
  7 10  1  0
  8  7  2  0
 10  1  1  0
M  END
$$$$

     RDKit          3D

  4  3  0  0  0  0  0  0  0  0999 V2000
   37.2800   37.1840   20.4630 C   0  0  0  0  0  0  0  0  0  0  0  0
   38.6300   37.0310   20.8030 O   0  0  0  0  0  0  0  0  0  0  0  0
   36.5070   36.6630   19.4610 O   0  0  0  0  0  0  0  0  0  0  0  0
   36.7500   38.3480   21.2200 C   0  0  0  0  0  0  0  0  0  0  0  0
  1  2  1  0
  1  4  1  0
  3  1  2  0
M  END
$$$$

     RDKit          3D

 18 18  0  0  0  0  0  0  0  0999 V2000
   38.7640   33.6100   31.1610 C   0  0  0  0  0  0  0  0  0  0  0  0
   37.6740   37.5360   29.9210 C   0  0  0  0  0  0  0  0  0  0  0  0
   39.5550   32.3690   31.1360 C   0  0  0  0  0  0  0  0  0  0  0  0
   38.4450   34.2970   32.0580 C   0  0  0  0  0  0  0  0  0  0  0  0
   36.8290   39.6640   21.5480 O   0  0  0  0  0  0  0  0  0  0  0  0
   35.5450   38.0530   25.4210 C   0  0  0  0  0  0  0  0  0  0  0  0
   35.9320   38.6110   26.8880 C   0  0  0  0  0  0  0  0  0  0  0  0
   36.6810   37.1120   21.7560 O   0  0  0  0  0  0  0  0  0  0  0  0
   36.1250   38.6290   23.8750 C   0  0  0  0  0  0  0  0  0  0  0  0
   35.6180   39.2570   24.4330 C   0  0  0  0  0  0  0  0  0  0  0  0
   36.6530   37.5340   28.8730 N   0  0  0  0  0  0  0  0  0  0  0  0
   34.4100   38.7100   21.6670 O   0  0  0  0  0  0  0  0  0  0  0  0
   35.9020   38.5120   22.0730 P   0  0  0  0  0  0  0  0  0  0  0  0
   38.3650   33.9030   29.8270 C   0  0  0  0  0  0  0  0  0  0  0  0
   37.1060   38.0100   27.5480 C   0  0  0  0  0  0  0  0  0  0  0  0
   37.9090   35.2230   29.6010 C   0  0  0  0  0  0  0  0  0  0  0  0
   37.7340   36.0670   30.5180 C   0  0  0  0  0  0  0  0  0  0  0  0
   38.0400   35.6070   31.8540 C   0  0  0  0  0  0  0  0  0  0  0  0
  1  4  1  0
  2 17  1  0
  3  1  1  0
  5 13  2  0
  6  7  1  0
  7 15  1  0
  8 13  1  0
  9 10  1  0
 10  6  1  0
 11  2  1  0
 12 13  1  0
 13  9  1  0
 14  1  2  0
 15 11  1  0
 16 14  1  0
 16 17  2  0
 17 18  1  0
 18  4  2  0
M  END
$$$$

     RDKit          3D

 11 11  0  0  0  0  0  0  0  0999 V2000
   33.4210   40.1260   24.2150 O   0  0  0  0  0  0  0  0  0  0  0  0
   38.0080   40.3650   22.7390 O   0  0  0  0  0  0  0  0  0  0  0  0
   33.8480   38.7590   23.9380 C   0  0  0  0  0  0  0  0  0  0  0  0
   35.8800   40.9590   24.2130 O   0  0  0  0  0  0  0  0  0  0  0  0
   35.2850   38.6100   24.4950 C   0  0  0  0  0  0  0  0  0  0  0  0
   37.9440   38.2660   23.6240 O   0  0  0  0  0  0  0  0  0  0  0  0
   35.8420   37.3590   24.0720 O   0  0  0  0  0  0  0  0  0  0  0  0
   36.9000   37.4620   23.0680 C   0  0  0  0  0  0  0  0  0  0  0  0
   36.1870   39.7480   24.2570 C   0  0  0  0  0  0  0  0  0  0  0  0
   33.7370   37.8580   22.7560 C   0  0  0  0  0  0  0  0  0  0  0  0
   37.3330   39.3900   23.3500 C   0  0  0  0  0  0  0  0  0  0  0  0
  2 11  2  0
  3 10  1  0
  3  1  1  0
  4  9  2  0
  5  3  1  0
  7  5  1  0
  8  6  1  0
  8  7  1  0
  9  5  1  0
 11  6  1  0
 11  9  1  0
M  END
$$$$

     RDKit          3D

 16 15  0  0  0  0  0  0  0  0999 V2000
   36.4750   38.5280   24.2700 O   0  0  0  0  0  0  0  0  0  0  0  0
   35.1190   36.7690   32.6650 C   0  0  0  0  0  0  0  0  0  0  0  0
   36.1690   36.0330   30.3530 N   0  0  0  0  0  0  0  0  0  0  0  0
   37.3350   36.8240   29.9750 C   0  0  0  0  0  0  0  0  0  0  0  0
   35.6710   36.1330   31.4870 C   0  0  0  0  0  0  0  0  0  0  0  0
   33.7190   35.8840   34.2320 O   0  0  0  0  0  0  0  0  0  0  0  0
   36.8440   37.0800   24.4420 P   0  0  0  0  0  0  0  0  0  0  0  0
   38.2510   37.3570   25.1110 O   0  0  0  0  0  0  0  0  0  0  0  0
   38.0190   38.4890   28.1790 C   0  0  0  0  0  0  0  0  0  0  0  0
   37.1970   36.6460   23.1390 O   0  0  0  0  0  0  0  0  0  0  0  0
   35.9720   37.1800   33.7150 N   0  0  0  0  0  0  0  0  0  0  0  0
   36.3290   36.6720   27.8770 C   0  0  0  0  0  0  0  0  0  0  0  0
   36.1830   36.5780   25.4980 O   0  0  0  0  0  0  0  0  0  0  0  0
   35.5970   37.2880   26.7120 C   0  0  0  0  0  0  0  0  0  0  0  0
   33.6420   36.7590   33.0740 C   0  0  0  0  0  0  0  0  0  0  0  0
   37.0210   37.6200   28.7780 C   0  0  0  0  0  0  0  0  0  0  0  0
  1  7  1  0
  2 15  1  0
  2 11  1  0
  3  5  1  0
  4  3  1  0
  5  2  1  0
  7  8  1  0
  7 13  1  0
 10  7  2  0
 12 16  1  0
 13 14  1  0
 14 12  1  0
 15  6  1  0
 16  9  1  0
 16  4  1  0
M  END
$$$$

     RDKit          3D

 10 10  0  0  0  0  0  0  0  0999 V2000
   35.5590   35.8620   23.7870 O   0  0  0  0  0  0  0  0  0  0  0  0
   36.8900   36.4220   25.5800 N   0  0  0  0  0  0  0  0  0  0  0  0
   34.6730   38.7470   23.9510 C   0  0  0  0  0  0  0  0  0  0  0  0
   33.3010   39.6090   22.3520 O   0  0  0  0  0  0  0  0  0  0  0  0
   34.5060   40.1120   24.3020 O   0  0  0  0  0  0  0  0  0  0  0  0
   37.1110   39.1720   25.8160 O   0  0  0  0  0  0  0  0  0  0  0  0
   34.0470   39.5070   23.0620 C   0  0  0  0  0  0  0  0  0  0  0  0
   36.2740   36.8000   24.5330 C   0  0  0  0  0  0  0  0  0  0  0  0
   36.1070   38.1740   23.9730 C   0  0  0  0  0  0  0  0  0  0  0  0
   37.0980   39.0000   24.3700 N   0  0  0  0  0  0  0  0  0  0  0  0
  1  8  2  0
  3  9  1  0
  3  5  1  0
  4  7  2  0
  7  3  1  0
  7  5  1  0
  8  2  1  0
  9 10  1  0
  9  8  1  0
 10  6  1  0
M  END
$$$$

     RDKit          3D

  7  6  0  0  0  0  0  0  0  0999 V2000
   37.8890   39.3680   22.4230 C   0  0  0  0  0  0  0  0  0  0  0  0
   36.6190   41.8640   22.3670 O   0  0  0  0  0  0  0  0  0  0  0  0
   38.9320   39.6700   21.3650 C   0  0  0  0  0  0  0  0  0  0  0  0
   38.4990   38.5020   23.3610 C   0  0  0  0  0  0  0  0  0  0  0  0
   36.7010   38.7350   21.8190 N   0  0  0  0  0  0  0  0  0  0  0  0
   37.3980   40.7330   22.8690 C   0  0  0  0  0  0  0  0  0  0  0  0
   38.0120   41.2000   23.9870 O   0  0  0  0  0  0  0  0  0  0  0  0
  1  6  1  0
  1  4  1  0
  2  6  2  0
  3  1  1  0
  5  1  1  0
  6  7  1  0
M  END
$$$$

     RDKit          3D

 22 25  0  0  0  0  0  0  0  0999 V2000
   37.8190   38.7850   26.4420 C   0  0  0  0  0  0  0  0  0  0  0  0
   36.4230   38.5650   26.0060 N   0  0  0  0  0  0  0  0  0  0  0  0
   38.8560   38.6850   25.7390 O   0  0  0  0  0  0  0  0  0  0  0  0
   34.3170   37.3310   29.3260 C   0  0  0  0  0  0  0  0  0  0  0  0
   35.7170   37.0590   31.6310 C   0  0  0  0  0  0  0  0  0  0  0  0
   38.1930   39.1980   27.7490 C   0  0  0  0  0  0  0  0  0  0  0  0
   34.5230   36.9180   30.6920 C   0  0  0  0  0  0  0  0  0  0  0  0
   36.1400   37.6390   23.6470 C   0  0  0  0  0  0  0  0  0  0  0  0
   36.9300   37.5530   30.9110 C   0  0  0  0  0  0  0  0  0  0  0  0
   36.4650   35.8400   32.3120 C   0  0  0  0  0  0  0  0  0  0  0  0
   37.3560   37.0380   33.5570 C   0  0  0  0  0  0  0  0  0  0  0  0
   36.0370   37.9950   22.1680 C   0  0  0  0  0  0  0  0  0  0  0  0
   36.6530   38.2150   29.5450 C   0  0  0  0  0  0  0  0  0  0  0  0
   39.1680   40.1750   27.9480 O   0  0  0  0  0  0  0  0  0  0  0  0
   37.4300   39.4400   29.8270 C   0  0  0  0  0  0  0  0  0  0  0  0
   35.3790   38.5010   27.1000 C   0  0  0  0  0  0  0  0  0  0  0  0
   36.3310   40.0480   24.1600 C   0  0  0  0  0  0  0  0  0  0  0  0
   35.8220   38.7350   24.6370 C   0  0  0  0  0  0  0  0  0  0  0  0
   37.3690   39.8040   23.0690 C   0  0  0  0  0  0  0  0  0  0  0  0
   37.9050   38.3740   28.8590 C   0  0  0  0  0  0  0  0  0  0  0  0
   35.4120   38.1580   28.6160 C   0  0  0  0  0  0  0  0  0  0  0  0
   36.5530   39.3950   21.8500 C   0  0  0  0  0  0  0  0  0  0  0  0
  1  6  1  0
  2  1  1  0
  2 16  1  0
  3  1  2  0
  4  7  2  0
  5 10  1  0
  6 14  1  0
  6 20  1  0
  7  5  1  0
  8 18  1  0
  9  5  1  0
 10 11  1  0
 12  8  1  0
 13 15  1  0
 13  9  1  0
 17 18  1  0
 18  2  1  0
 19 17  1  0
 20 13  1  0
 20 15  1  0
 21 16  1  0
 21  4  1  0
 21 13  1  0
 22 12  1  0
 22 19  1  0
M  END
$$$$

     RDKit          3D

  7  7  0  0  0  0  0  0  0  0999 V2000
   34.5050   39.8240   23.8990 O   0  0  0  0  0  0  0  0  0  0  0  0
   34.9600   37.0680   23.4040 C   0  0  0  0  0  0  0  0  0  0  0  0
   36.4810   38.7060   24.1130 C   0  0  0  0  0  0  0  0  0  0  0  0
   37.0470   37.5130   23.5400 C   0  0  0  0  0  0  0  0  0  0  0  0
   35.2700   38.8870   23.8660 C   0  0  0  0  0  0  0  0  0  0  0  0
   34.3720   37.8060   24.1940 N   0  0  0  0  0  0  0  0  0  0  0  0
   35.9540   37.2000   22.3210 C   0  0  0  0  0  0  0  0  0  0  0  0
  2  6  1  0
  4  3  1  0
  5  1  2  0
  5  3  1  0
  5  6  1  0
  7  2  1  0
  7  4  1  0
M  END
$$$$

     RDKit          3D

 13 14  0  0  0  0  0  0  0  0999 V2000
   37.7090   37.8720   24.0110 O   0  0  0  0  0  0  0  0  0  0  0  0
   36.2630   37.5990   23.7930 P   0  0  0  0  0  0  0  0  0  0  0  0
   35.6280   39.1770   22.9100 S   0  0  0  0  0  0  0  0  0  0  0  0
   35.2780   36.7640   29.1870 C   0  0  0  0  0  0  0  0  0  0  0  0
   34.9880   36.4230   27.7440 C   0  0  0  0  0  0  0  0  0  0  0  0
   35.2990   37.4580   25.0340 N   0  0  0  0  0  0  0  0  0  0  0  0
   35.2240   35.6030   30.1920 C   0  0  0  0  0  0  0  0  0  0  0  0
   34.2070   37.4080   25.7720 C   0  0  0  0  0  0  0  0  0  0  0  0
   36.6960   37.3670   29.4290 C   0  0  0  0  0  0  0  0  0  0  0  0
   34.1950   37.8060   29.4690 C   0  0  0  0  0  0  0  0  0  0  0  0
   37.0700   36.4180   24.0400 O   0  0  0  0  0  0  0  0  0  0  0  0
   33.9100   38.4830   28.0760 N   0  0  0  0  0  0  0  0  0  0  0  0
   34.2010   37.3940   27.2020 C   0  0  0  0  0  0  0  0  0  0  0  0
  1 11  1  0
  2  1  1  0
  2 11  1  0
  2  6  1  0
  3  2  1  0
  4  9  1  0
  4 10  1  0
  4  7  1  0
  5  4  1  0
  6  8  1  0
 12 10  1  0
 13  8  1  0
 13  5  1  0
 13 12  1  0
M  END
$$$$

     RDKit          3D

 11 11  0  0  0  0  0  0  0  0999 V2000
   35.9580   39.3510   25.1720 N   0  0  0  0  0  0  0  0  0  0  0  0
   35.0450   38.6970   25.8920 C   0  0  0  0  0  0  0  0  0  0  0  0
   34.1600   37.6840   25.2790 C   0  0  0  0  0  0  0  0  0  0  0  0
   34.8560   37.9020   28.2230 N   0  0  0  0  0  0  0  0  0  0  0  0
   34.4280   37.2590   23.9980 C   0  0  0  0  0  0  0  0  0  0  0  0
   38.4190   40.0860   22.9530 O   0  0  0  0  0  0  0  0  0  0  0  0
   36.6890   38.8200   24.1280 C   0  0  0  0  0  0  0  0  0  0  0  0
   35.9530   37.4590   23.4450 S   0  0  0  0  0  0  0  0  0  0  0  0
   36.3120   41.0010   22.4900 C   0  0  0  0  0  0  0  0  0  0  0  0
   37.1940   39.9100   23.0960 C   0  0  0  0  0  0  0  0  0  0  0  0
   34.7790   39.0870   27.3360 C   0  0  0  0  0  0  0  0  0  0  0  0
  1  2  1  0
  2 11  1  0
  3  2  2  0
  5  3  1  0
  6 10  2  0
  7 10  1  0
  7  1  1  0
  8  5  1  0
  8  7  1  0
  9 10  1  0
 11  4  1  0
M  END
$$$$

     RDKit          3D

 16 16  0  0  0  0  0  0  0  0999 V2000
   35.5730   36.4720   29.1390 C   0  0  0  0  0  0  0  0  0  0  0  0
   34.8660   35.8950   26.8570 N   0  0  0  0  0  0  0  0  0  0  0  0
   36.5520   36.7940   24.7880 C   0  0  0  0  0  0  0  0  0  0  0  0
   36.8660   36.5340   27.1280 N   0  0  0  0  0  0  0  0  0  0  0  0
   37.3110   36.1930   25.7830 C   0  0  0  0  0  0  0  0  0  0  0  0
   33.1020   35.4900   31.5270 O   0  0  0  0  0  0  0  0  0  0  0  0
   34.4870   35.7110   29.6860 C   0  0  0  0  0  0  0  0  0  0  0  0
   34.5850   34.5610   29.3760 O   0  0  0  0  0  0  0  0  0  0  0  0
   34.2490   37.5850   23.9110 C   0  0  0  0  0  0  0  0  0  0  0  0
   35.5880   37.3560   23.8350 C   0  0  0  0  0  0  0  0  0  0  0  0
   33.3620   37.3010   31.0470 O   0  0  0  0  0  0  0  0  0  0  0  0
   34.1990   36.0750   31.0820 C   0  0  0  0  0  0  0  0  0  0  0  0
   33.7810   37.6430   22.6000 C   0  0  0  0  0  0  0  0  0  0  0  0
   34.8500   37.7320   21.7740 C   0  0  0  0  0  0  0  0  0  0  0  0
   35.9500   37.3150   22.5010 C   0  0  0  0  0  0  0  0  0  0  0  0
   35.7580   36.0590   27.6960 C   0  0  0  0  0  0  0  0  0  0  0  0
  1  7  1  0
  2 16  2  0
  3  5  1  0
  4 16  1  0
  5  4  1  0
  7  8  1  0
  7 12  1  0
 10  9  1  0
 10  3  1  0
 11 12  1  0
 12  6  1  0
 13  9  1  0
 14 15  1  0
 14 13  1  0
 15 10  1  0
 16  1  1  0
M  END
$$$$

     RDKit          3D

  9  8  0  0  0  0  0  0  0  0999 V2000
   35.3870   37.0610   23.4890 C   0  0  0  0  0  0  0  0  0  0  0  0
   39.1860   39.4370   25.1750 C   0  0  0  0  0  0  0  0  0  0  0  0
   36.8900   38.8870   23.5680 N   0  0  0  0  0  0  0  0  0  0  0  0
   36.0380   38.9900   22.4610 C   0  0  0  0  0  0  0  0  0  0  0  0
   34.0620   39.7730   23.6500 O   0  0  0  0  0  0  0  0  0  0  0  0
   34.3800   38.2260   23.6960 C   0  0  0  0  0  0  0  0  0  0  0  0
   38.0440   39.4450   24.3600 C   0  0  0  0  0  0  0  0  0  0  0  0
   36.7480   37.5120   23.9860 C   0  0  0  0  0  0  0  0  0  0  0  0
   33.4170   37.5150   24.5860 O   0  0  0  0  0  0  0  0  0  0  0  0
  1  6  1  0
  1  8  1  0
  3  8  1  0
  3  7  1  0
  4  3  1  0
  5  6  2  0
  6  9  1  0
  7  2  1  0
M  END
$$$$

     RDKit          3D

 12 12  0  0  0  0  0  0  0  0999 V2000
   35.2370   39.1290   24.0940 C   0  0  0  0  0  0  0  0  0  0  0  0
   35.3380   39.4250   25.4730 O   0  0  0  0  0  0  0  0  0  0  0  0
   37.3180   36.4170   24.0740 O   0  0  0  0  0  0  0  0  0  0  0  0
   36.3970   40.2090   27.7780 C   0  0  0  0  0  0  0  0  0  0  0  0
   35.2850   38.4840   26.6110 C   0  0  0  0  0  0  0  0  0  0  0  0
   35.0890   39.4540   27.8610 C   0  0  0  0  0  0  0  0  0  0  0  0
   36.5440   38.5900   23.4980 C   0  0  0  0  0  0  0  0  0  0  0  0
   37.3620   39.0110   27.5610 C   0  0  0  0  0  0  0  0  0  0  0  0
   34.3760   37.3800   26.3320 O   0  0  0  0  0  0  0  0  0  0  0  0
   36.5380   37.9090   27.0140 N   0  0  0  0  0  0  0  0  0  0  0  0
   37.3700   37.6290   24.3550 C   0  0  0  0  0  0  0  0  0  0  0  0
   38.2160   37.9750   25.1460 O   0  0  0  0  0  0  0  0  0  0  0  0
  1  2  1  0
  2  5  1  0
  3 11  2  0
  4  6  1  0
  5  9  1  0
  5 10  1  0
  5  6  1  0
  7  1  1  0
  7 11  1  0
  8  4  1  0
 10  8  1  0
 11 12  1  0
M  END
$$$$

     RDKit          3D

 18 18  0  0  0  0  0  0  0  0999 V2000
   38.1450   39.1640   23.1850 C   0  0  0  0  0  0  0  0  0  0  0  0
   36.6960   38.6270   25.2320 C   0  0  0  0  0  0  0  0  0  0  0  0
   37.4780   39.6490   24.4170 C   0  0  0  0  0  0  0  0  0  0  0  0
   36.3490   39.0380   26.4790 C   0  0  0  0  0  0  0  0  0  0  0  0
   36.3020   40.3660   26.8250 C   0  0  0  0  0  0  0  0  0  0  0  0
   35.6170   37.0200   27.4990 C   0  0  0  0  0  0  0  0  0  0  0  0
   39.3560   39.5340   22.7360 C   0  0  0  0  0  0  0  0  0  0  0  0
   37.0360   41.4030   25.9980 C   0  0  0  0  0  0  0  0  0  0  0  0
   35.7870   40.8400   27.9350 O   0  0  0  0  0  0  0  0  0  0  0  0
   38.1550   40.6480   25.2730 C   0  0  0  0  0  0  0  0  0  0  0  0
   34.9190   36.6770   28.7830 C   0  0  0  0  0  0  0  0  0  0  0  0
   40.5860   39.0140   23.4340 C   0  0  0  0  0  0  0  0  0  0  0  0
   36.3210   38.2910   27.6310 C   0  0  0  0  0  0  0  0  0  0  0  0
   37.6050   42.4320   26.8450 N   0  0  0  0  0  0  0  0  0  0  0  0
   38.7390   41.5220   24.4100 O   0  0  0  0  0  0  0  0  0  0  0  0
   37.0150   37.4050   25.0550 O   0  0  0  0  0  0  0  0  0  0  0  0
   37.4610   38.3110   22.5300 O   0  0  0  0  0  0  0  0  0  0  0  0
   39.6180   40.2010   21.4120 C   0  0  0  0  0  0  0  0  0  0  0  0
  2  4  1  0
  3  1  1  0
  3  2  1  0
  3 10  1  0
  4  5  1  0
  4 13  1  0
  5  9  1  0
  6 13  1  0
  6 11  1  0
  7  1  1  0
  7 12  1  0
  8  5  1  0
  8 14  1  0
 10 15  1  0
 10  8  1  0
 16  2  2  0
 17  1  2  0
 18  7  1  0
M  END
$$$$

     RDKit          3D

 11 11  0  0  0  0  0  0  0  0999 V2000
   34.0940   39.4920   27.3080 C   0  0  0  0  0  0  0  0  0  0  0  0
   33.5720   39.0750   25.5250 C   0  0  0  0  0  0  0  0  0  0  0  0
   35.2530   37.8230   26.0620 C   0  0  0  0  0  0  0  0  0  0  0  0
   34.2750   38.7710   26.3920 C   0  0  0  0  0  0  0  0  0  0  0  0
   36.3690   38.2680   22.4730 S   0  0  0  0  0  0  0  0  0  0  0  0
   33.6480   39.9570   28.2290 O   0  0  0  0  0  0  0  0  0  0  0  0
   35.1020   38.5540   23.8240 C   0  0  0  0  0  0  0  0  0  0  0  0
   33.9580   39.3850   24.2260 C   0  0  0  0  0  0  0  0  0  0  0  0
   35.5220   37.6280   24.7660 C   0  0  0  0  0  0  0  0  0  0  0  0
   36.1090   37.6670   21.3450 N   0  0  0  0  0  0  0  0  0  0  0  0
   37.8330   38.4260   23.2450 C   0  0  0  0  0  0  0  0  0  0  0  0
  1  6  2  0
  2  4  1  0
  3  4  1  0
  4  1  2  0
  5 11  1  0
  5  7  1  0
  7  8  1  0
  7  9  1  0
  8  2  1  0
  9  3  1  0
 10  5  2  0
M  END
$$$$
