
     RDKit          3D

 10  9  0  0  0  0  0  0  0  0999 V2000
   39.2200   33.0910   30.5270 C   0  0  0  0  0  0  0  0  0  0  0  0
   36.9130   29.6630   33.8290 O   0  0  0  0  0  0  0  0  0  0  0  0
   39.8690   34.4050   30.5480 O   0  0  0  0  0  0  0  0  0  0  0  0
   37.7290   34.5910   31.3120 O   0  0  0  0  0  0  0  0  0  0  0  0
   36.6800   31.7270   32.1430 C   0  0  0  0  0  0  0  0  0  0  0  0
   37.0620   32.4330   30.9140 C   0  0  0  0  0  0  0  0  0  0  0  0
   39.2260   29.8980   34.0200 C   0  0  0  0  0  0  0  0  0  0  0  0
   38.0420   33.4590   31.3710 C   0  0  0  0  0  0  0  0  0  0  0  0
   37.8120   31.5250   33.0220 N   0  0  0  0  0  0  0  0  0  0  0  0
   37.8200   30.4340   33.7040 C   0  0  0  0  0  0  0  0  0  0  0  0
  1  3  1  0
  1  8  1  0
  5  9  1  0
  6  8  1  0
  6  5  1  0
  8  4  1  0
  9 10  1  0
 10  2  2  0
 10  7  1  0
M  END
$$$$

     RDKit          3D

 18 18  0  0  0  0  0  0  0  0999 V2000
   41.4410   37.2860   34.4900 N   0  0  0  0  0  0  0  0  0  0  0  0
   41.1040   38.5530   35.1280 C   0  0  0  0  0  0  0  0  0  0  0  0
   38.3160   33.5050   33.8870 C   0  0  0  0  0  0  0  0  0  0  0  0
   42.2980   39.0470   35.8810 N   0  0  0  0  0  0  0  0  0  0  0  0
   37.6100   32.6880   33.1680 O   0  0  0  0  0  0  0  0  0  0  0  0
   39.7740   35.8130   32.0960 C   0  0  0  0  0  0  0  0  0  0  0  0
   37.0530   30.1050   34.5790 O   0  0  0  0  0  0  0  0  0  0  0  0
   39.6060   35.4660   33.5510 C   0  0  0  0  0  0  0  0  0  0  0  0
   38.2850   32.0440   35.6820 C   0  0  0  0  0  0  0  0  0  0  0  0
   38.5310   34.6730   33.3250 N   0  0  0  0  0  0  0  0  0  0  0  0
   40.1460   38.0770   36.1560 N   0  0  0  0  0  0  0  0  0  0  0  0
   40.5670   39.4960   34.0690 C   0  0  0  0  0  0  0  0  0  0  0  0
   37.3880   31.2830   34.7830 C   0  0  0  0  0  0  0  0  0  0  0  0
   40.6170   37.0390   32.0020 C   0  0  0  0  0  0  0  0  0  0  0  0
   42.1050   39.7720   37.1510 C   0  0  0  0  0  0  0  0  0  0  0  0
   38.6890   33.2350   35.1780 C   0  0  0  0  0  0  0  0  0  0  0  0
   40.7520   37.1840   33.4150 N   0  0  0  0  0  0  0  0  0  0  0  0
   36.6560   32.0610   33.7520 C   0  0  0  0  0  0  0  0  0  0  0  0
  1  2  1  0
  2 12  1  0
  2  4  1  0
  2 11  1  0
  3 16  2  0
  4 15  1  0
  5 18  1  0
  5  3  1  0
  6  8  1  0
  7 13  2  0
 10  8  1  0
 10  3  1  0
 13  9  1  0
 14  6  1  0
 14 17  1  0
 16  9  1  0
 17  1  1  0
 18 13  1  0
M  END
$$$$

     RDKit          3D

 12 12  0  0  0  0  0  0  0  0999 V2000
   42.0520   37.3910   32.0520 F   0  0  0  0  0  0  0  0  0  0  0  0
   40.7270   39.1020   33.7480 O   0  0  0  0  0  0  0  0  0  0  0  0
   40.3410   40.8220   32.1490 C   0  0  0  0  0  0  0  0  0  0  0  0
   41.0160   41.8780   28.9240 O   0  0  0  0  0  0  0  0  0  0  0  0
   41.7640   38.6780   30.0920 C   0  0  0  0  0  0  0  0  0  0  0  0
   41.2930   39.5920   32.5840 C   0  0  0  0  0  0  0  0  0  0  0  0
   41.1820   40.9770   29.8430 C   0  0  0  0  0  0  0  0  0  0  0  0
   40.1780   41.9200   33.2660 C   0  0  0  0  0  0  0  0  0  0  0  0
   41.3590   38.4130   31.5210 C   0  0  0  0  0  0  0  0  0  0  0  0
   40.9600   41.3310   31.2250 N   0  0  0  0  0  0  0  0  0  0  0  0
   42.2800   37.7150   29.3190 O   0  0  0  0  0  0  0  0  0  0  0  0
   41.0590   39.6580   29.4770 N   0  0  0  0  0  0  0  0  0  0  0  0
  3  6  1  0
  3  8  1  0
  4  7  2  0
  5  9  1  0
  6  2  1  0
  7 10  1  0
  9  1  1  0
  9  6  1  0
 10  3  1  0
 11  5  2  0
 12  7  1  0
 12  5  1  0
M  END
$$$$

     RDKit          3D

 14 14  0  0  0  0  0  0  0  0999 V2000
   41.8100   40.3400   31.8660 C   0  0  0  0  0  0  0  0  0  0  0  0
   38.7740   42.9280   29.7020 O   0  0  0  0  0  0  0  0  0  0  0  0
   40.2770   38.4020   32.0500 C   0  0  0  0  0  0  0  0  0  0  0  0
   41.3500   37.4640   31.8980 N   0  0  0  0  0  0  0  0  0  0  0  0
   41.9920   35.6240   31.0870 O   0  0  0  0  0  0  0  0  0  0  0  0
   39.7390   38.7470   30.6490 C   0  0  0  0  0  0  0  0  0  0  0  0
   39.9640   40.1450   30.3070 C   0  0  0  0  0  0  0  0  0  0  0  0
   41.0010   42.4220   30.6470 C   0  0  0  0  0  0  0  0  0  0  0  0
   39.9780   36.2510   30.5280 O   0  0  0  0  0  0  0  0  0  0  0  0
   41.9480   39.2080   33.9050 O   0  0  0  0  0  0  0  0  0  0  0  0
   41.0710   36.4380   31.1770 C   0  0  0  0  0  0  0  0  0  0  0  0
   40.9400   41.0450   31.2990 C   0  0  0  0  0  0  0  0  0  0  0  0
   39.8410   43.1590   30.2630 C   0  0  0  0  0  0  0  0  0  0  0  0
   41.0370   39.3970   32.7750 C   0  0  0  0  0  0  0  0  0  0  0  0
  1 14  1  0
  2 13  2  0
  3  4  1  0
  3 14  1  0
  5 11  1  0
  6  3  1  0
  7  6  1  0
  7 12  1  0
  9 11  2  0
 11  4  1  0
 12  8  1  0
 12  1  1  0
 13  8  1  0
 14 10  1  0
M  END
$$$$

     RDKit          3D

  6  6  0  0  0  0  0  0  0  0999 V2000
   39.5650   34.7200   32.3600 O   0  0  0  0  0  0  0  0  0  0  0  0
   39.7820   36.1090   30.8670 F   0  0  0  0  0  0  0  0  0  0  0  0
   39.0100   35.7250   31.8820 C   0  0  0  0  0  0  0  0  0  0  0  0
   38.3730   36.7870   32.5530 C   0  0  0  0  0  0  0  0  0  0  0  0
   36.5960   35.4050   32.8890 N   0  0  0  0  0  0  0  0  0  0  0  0
   37.5430   35.7060   31.8040 C   0  0  0  0  0  0  0  0  0  0  0  0
  3  2  1  0
  3  1  1  0
  3  4  1  0
  6  3  1  0
  6  4  1  0
  6  5  1  0
M  END
$$$$

     RDKit          3D

 12 13  0  0  0  0  0  0  0  0999 V2000
   37.8220   34.3090   31.9690 C   0  0  0  0  0  0  0  0  0  0  0  0
   37.4820   35.2000   33.9780 C   0  0  0  0  0  0  0  0  0  0  0  0
   39.3130   34.3950   31.2790 C   0  0  0  0  0  0  0  0  0  0  0  0
   36.3760   35.9660   33.3870 N   0  0  0  0  0  0  0  0  0  0  0  0
   39.8480   33.4690   30.4720 C   0  0  0  0  0  0  0  0  0  0  0  0
   37.9330   31.5460   31.3150 S   0  0  0  0  0  0  0  0  0  0  0  0
   38.8910   32.6680   30.2680 C   0  0  0  0  0  0  0  0  0  0  0  0
   37.6750   33.2560   29.7020 O   0  0  0  0  0  0  0  0  0  0  0  0
   35.5950   35.2360   32.4820 C   0  0  0  0  0  0  0  0  0  0  0  0
   36.2470   34.2440   31.7030 C   0  0  0  0  0  0  0  0  0  0  0  0
   38.5610   35.4100   31.4370 N   0  0  0  0  0  0  0  0  0  0  0  0
   38.1090   34.0460   33.1690 C   0  0  0  0  0  0  0  0  0  0  0  0
  1 12  1  0
  3  5  1  0
  3 11  1  0
  3  1  1  0
  4  2  1  0
  7  8  1  0
  7  5  1  0
  7  6  1  0
  9  4  1  0
 10  1  1  0
 10  9  1  0
 11  1  1  0
 12  2  1  0
M  END
$$$$

     RDKit          3D

  6  5  0  0  0  0  0  0  0  0999 V2000
   42.2440   38.9390   29.7560 C   0  0  0  0  0  0  0  0  0  0  0  0
   39.1950   39.5450   30.1170 O   0  0  0  0  0  0  0  0  0  0  0  0
   40.0970   39.6740   30.9620 C   0  0  0  0  0  0  0  0  0  0  0  0
   41.3550   38.7150   30.9390 C   0  0  0  0  0  0  0  0  0  0  0  0
   40.1190   40.2460   32.0850 O   0  0  0  0  0  0  0  0  0  0  0  0
   41.4950   37.7550   31.4850 O   0  0  0  0  0  0  0  0  0  0  0  0
  1  4  1  0
  2  3  2  0
  3  5  1  0
  4  3  1  0
  4  6  2  0
M  END
$$$$

     RDKit          3D

 16 17  0  0  0  0  0  0  0  0999 V2000
   38.9420   36.4150   32.1130 C   0  0  0  0  0  0  0  0  0  0  0  0
   37.9580   36.1230   33.1600 C   0  0  0  0  0  0  0  0  0  0  0  0
   41.2330   36.7520   31.1860 S   0  0  0  0  0  0  0  0  0  0  0  0
   34.5270   37.3190   32.6760 C   0  0  0  0  0  0  0  0  0  0  0  0
   42.6980   41.0800   31.9820 C   0  0  0  0  0  0  0  0  0  0  0  0
   36.0190   37.6070   32.6770 C   0  0  0  0  0  0  0  0  0  0  0  0
   43.3310   38.8640   31.6190 O   0  0  0  0  0  0  0  0  0  0  0  0
   35.6760   35.2830   33.1830 C   0  0  0  0  0  0  0  0  0  0  0  0
   40.5120   38.0080   32.0880 C   0  0  0  0  0  0  0  0  0  0  0  0
   39.9280   35.6340   31.7460 C   0  0  0  0  0  0  0  0  0  0  0  0
   36.6700   36.2830   33.0100 C   0  0  0  0  0  0  0  0  0  0  0  0
   39.0710   37.9310   31.9170 C   0  0  0  0  0  0  0  0  0  0  0  0
   42.3170   39.7430   31.3440 C   0  0  0  0  0  0  0  0  0  0  0  0
   34.2490   35.8270   33.0660 C   0  0  0  0  0  0  0  0  0  0  0  0
   40.9870   39.3330   31.8600 N   0  0  0  0  0  0  0  0  0  0  0  0
   35.8860   33.9970   33.3400 O   0  0  0  0  0  0  0  0  0  0  0  0
  1  2  1  0
  3 10  1  0
  3  9  1  0
  4  6  2  0
  4 14  1  0
  6 11  1  0
  8 16  1  0
  9 15  1  0
 10  1  1  0
 11  2  1  0
 11  8  2  0
 12  9  1  0
 12  1  1  0
 13  7  1  0
 13 15  1  0
 13  5  1  0
 14  8  1  0
M  END
$$$$

     RDKit          3D

  7  6  0  0  0  0  0  0  0  0999 V2000
   41.2380   36.1380   30.2010 O   0  0  0  0  0  0  0  0  0  0  0  0
   38.5250   38.9770   32.2420 C   0  0  0  0  0  0  0  0  0  0  0  0
   38.7100   37.6150   31.6350 C   0  0  0  0  0  0  0  0  0  0  0  0
   41.0540   37.2350   31.1120 C   0  0  0  0  0  0  0  0  0  0  0  0
   39.2540   39.9880   31.7030 O   0  0  0  0  0  0  0  0  0  0  0  0
   37.8870   39.2930   33.2210 O   0  0  0  0  0  0  0  0  0  0  0  0
   39.7490   37.7540   30.5340 C   0  0  0  0  0  0  0  0  0  0  0  0
  1  4  1  0
  2  6  1  0
  3  2  1  0
  5  2  2  0
  7  4  1  0
  7  3  1  0
M  END
$$$$

     RDKit          3D

  6  5  0  0  0  0  0  0  0  0999 V2000
   40.5760   35.9760   30.4510 C   0  0  0  0  0  0  0  0  0  0  0  0
   39.6010   37.7410   31.5950 C   0  0  0  0  0  0  0  0  0  0  0  0
   41.0730   36.6770   29.8430 O   0  0  0  0  0  0  0  0  0  0  0  0
   40.7690   34.7070   30.3280 O   0  0  0  0  0  0  0  0  0  0  0  0
   39.9130   36.3500   31.5670 C   0  0  0  0  0  0  0  0  0  0  0  0
   39.3700   38.3630   32.8890 N   0  0  0  0  0  0  0  0  0  0  0  0
  1  5  1  0
  2  6  1  0
  3  1  2  0
  4  1  1  0
  5  2  1  0
M  END
$$$$

     RDKit          3D

 13 13  0  0  0  0  0  0  0  0999 V2000
   39.3410   40.9940   34.4050 O   0  0  0  0  0  0  0  0  0  0  0  0
   40.2610   40.4150   33.5100 C   0  0  0  0  0  0  0  0  0  0  0  0
   38.2120   39.0140   32.6120 O   0  0  0  0  0  0  0  0  0  0  0  0
   36.8740   36.8970   32.9150 C   0  0  0  0  0  0  0  0  0  0  0  0
   35.0630   38.2490   32.1610 O   0  0  0  0  0  0  0  0  0  0  0  0
   41.6700   37.8920   30.6190 O   0  0  0  0  0  0  0  0  0  0  0  0
   40.2850   37.9430   32.6520 C   0  0  0  0  0  0  0  0  0  0  0  0
   39.6190   39.3260   32.6120 C   0  0  0  0  0  0  0  0  0  0  0  0
   37.9500   37.5480   32.5850 C   0  0  0  0  0  0  0  0  0  0  0  0
   40.7750   37.4440   31.2830 C   0  0  0  0  0  0  0  0  0  0  0  0
   39.1340   37.0480   32.9350 O   0  0  0  0  0  0  0  0  0  0  0  0
   35.6120   36.9960   32.0170 C   0  0  0  0  0  0  0  0  0  0  0  0
   40.4360   36.4650   30.6790 O   0  0  0  0  0  0  0  0  0  0  0  0
  2  1  1  0
  3  8  1  0
  6 10  2  0
  7 10  1  0
  7 11  1  0
  8  7  1  0
  8  2  1  0
  9  3  1  0
  9  4  1  0
  9 11  1  0
 12  5  1  0
 12  4  1  0
 13 10  1  0
M  END
$$$$

     RDKit          3D

 21 22  0  0  0  0  0  0  0  0999 V2000
   40.2250   40.9530   31.7450 O   0  0  0  0  0  0  0  0  0  0  0  0
   39.9080   38.8010   32.9020 C   0  0  0  0  0  0  0  0  0  0  0  0
   34.6840   27.9890   34.6700 C   0  0  0  0  0  0  0  0  0  0  0  0
   34.1160   28.9530   35.0730 N   0  0  0  0  0  0  0  0  0  0  0  0
   38.4230   34.2320   34.1030 C   0  0  0  0  0  0  0  0  0  0  0  0
   39.1440   35.2560   33.4790 C   0  0  0  0  0  0  0  0  0  0  0  0
   38.6030   35.8670   32.3050 C   0  0  0  0  0  0  0  0  0  0  0  0
   34.7990   28.2490   33.0690 N   0  0  0  0  0  0  0  0  0  0  0  0
   34.6410   30.2470   34.8030 C   0  0  0  0  0  0  0  0  0  0  0  0
   37.2360   35.5560   31.9380 C   0  0  0  0  0  0  0  0  0  0  0  0
   40.8580   40.7280   34.0450 C   0  0  0  0  0  0  0  0  0  0  0  0
   37.3510   33.6220   33.4110 C   0  0  0  0  0  0  0  0  0  0  0  0
   39.5260   36.7630   31.5210 C   0  0  0  0  0  0  0  0  0  0  0  0
   36.6650   34.4140   32.4730 C   0  0  0  0  0  0  0  0  0  0  0  0
   35.7160   31.7800   33.1760 C   0  0  0  0  0  0  0  0  0  0  0  0
   40.2730   40.2570   32.5300 C   0  0  0  0  0  0  0  0  0  0  0  0
   37.0150   32.2780   33.6020 C   0  0  0  0  0  0  0  0  0  0  0  0
   41.4210   38.1320   31.0820 C   0  0  0  0  0  0  0  0  0  0  0  0
   35.0130   29.4020   32.8020 C   0  0  0  0  0  0  0  0  0  0  0  0
   35.3550   30.3640   33.6860 C   0  0  0  0  0  0  0  0  0  0  0  0
   40.0790   37.8750   31.7570 C   0  0  0  0  0  0  0  0  0  0  0  0
  1 16  2  0
  3  4  1  0
  6  5  1  0
  7  6  2  0
  8  3  1  0
  9  4  1  0
 10  7  1  0
 10 14  2  0
 12 17  1  0
 12  5  2  0
 13 21  1  0
 13  7  1  0
 14 12  1  0
 15 17  2  3
 15 20  1  0
 16  2  1  0
 16 11  1  0
 19  8  1  0
 19 20  1  0
 20  9  1  0
 21 18  1  0
 21  2  1  0
M  END
$$$$

     RDKit          3D

 10 10  0  0  0  0  0  0  0  0999 V2000
   41.6840   39.4710   28.7250 C   0  0  0  0  0  0  0  0  0  0  0  0
   39.6360   39.3310   31.0360 O   0  0  0  0  0  0  0  0  0  0  0  0
   41.9130   39.4100   30.2730 C   0  0  0  0  0  0  0  0  0  0  0  0
   41.0290   37.6010   31.5310 C   0  0  0  0  0  0  0  0  0  0  0  0
   39.5510   41.6770   28.2030 C   0  0  0  0  0  0  0  0  0  0  0  0
   39.8580   37.0910   32.0130 O   0  0  0  0  0  0  0  0  0  0  0  0
   40.5620   40.5220   28.3190 C   0  0  0  0  0  0  0  0  0  0  0  0
   41.0000   38.8620   31.0900 C   0  0  0  0  0  0  0  0  0  0  0  0
   39.5360   40.5570   27.6030 C   0  0  0  0  0  0  0  0  0  0  0  0
   41.8820   36.7340   31.6430 O   0  0  0  0  0  0  0  0  0  0  0  0
  1  3  1  0
  3  8  1  0
  4 10  2  0
  4  6  1  0
  5  7  1  0
  7  1  1  0
  8  2  1  0
  8  4  1  0
  9  5  1  0
  9  7  1  0
M  END
$$$$

     RDKit          3D

  7  7  0  0  0  0  0  0  0  0999 V2000
   40.9930   39.8600   32.1010 C   0  0  0  0  0  0  0  0  0  0  0  0
   39.9080   40.7390   31.5140 C   0  0  0  0  0  0  0  0  0  0  0  0
   40.3240   41.2260   30.3000 O   0  0  0  0  0  0  0  0  0  0  0  0
   42.0220   38.1170   29.0410 O   0  0  0  0  0  0  0  0  0  0  0  0
   41.0780   38.9340   29.7090 C   0  0  0  0  0  0  0  0  0  0  0  0
   41.7030   38.9730   31.0880 C   0  0  0  0  0  0  0  0  0  0  0  0
   40.8920   40.3530   29.2760 C   0  0  0  0  0  0  0  0  0  0  0  0
  2  1  1  0
  3  2  1  0
  5  4  1  0
  5  6  1  0
  6  1  1  0
  7  5  1  0
  7  3  1  0
M  END
$$$$

     RDKit          3D

 16 18  0  0  0  0  0  0  0  0999 V2000
   37.9120   32.7630   32.7000 C   0  0  0  0  0  0  0  0  0  0  0  0
   35.6340   36.9380   33.2090 C   0  0  0  0  0  0  0  0  0  0  0  0
   39.5760   35.7980   32.8950 C   0  0  0  0  0  0  0  0  0  0  0  0
   36.7750   34.7730   33.0150 C   0  0  0  0  0  0  0  0  0  0  0  0
   34.3870   36.3070   32.8050 C   0  0  0  0  0  0  0  0  0  0  0  0
   37.9200   34.0280   33.0220 N   0  0  0  0  0  0  0  0  0  0  0  0
   40.7890   36.6580   32.9250 C   0  0  0  0  0  0  0  0  0  0  0  0
   39.5400   38.6460   32.6610 C   0  0  0  0  0  0  0  0  0  0  0  0
   34.4170   34.9500   32.4540 C   0  0  0  0  0  0  0  0  0  0  0  0
   36.7160   32.0890   32.7530 C   0  0  0  0  0  0  0  0  0  0  0  0
   40.7140   37.9700   32.4250 C   0  0  0  0  0  0  0  0  0  0  0  0
   36.7920   36.1830   33.2330 C   0  0  0  0  0  0  0  0  0  0  0  0
   35.5970   32.7920   32.7710 N   0  0  0  0  0  0  0  0  0  0  0  0
   38.2820   37.9850   32.9720 C   0  0  0  0  0  0  0  0  0  0  0  0
   38.2960   36.5270   33.4040 C   0  0  0  0  0  0  0  0  0  0  0  0
   35.5700   34.1490   32.7460 C   0  0  0  0  0  0  0  0  0  0  0  0
  1 10  2  0
  1  6  1  0
  2 12  2  0
  3  7  1  0
  3 15  1  0
  4  6  2  0
  4 12  1  0
  5  2  1  0
  8 14  1  0
  9 16  1  0
  9  5  2  0
 10 13  1  0
 11  8  1  0
 11  7  1  0
 12 15  1  0
 14 15  1  0
 16 13  2  0
 16  4  1  0
M  END
$$$$

     RDKit          3D

 15 17  0  0  0  0  0  0  0  0999 V2000
   36.6110   36.8380   32.2750 C   0  0  0  0  0  0  0  0  0  0  0  0
   38.7990   37.0310   33.3900 N   0  0  0  0  0  0  0  0  0  0  0  0
   37.8730   37.5510   32.6390 C   0  0  0  0  0  0  0  0  0  0  0  0
   39.4490   39.1010   32.9910 C   0  0  0  0  0  0  0  0  0  0  0  0
   40.6750   37.7780   35.9670 N   0  0  0  0  0  0  0  0  0  0  0  0
   36.6120   34.5450   32.6100 N   0  0  0  0  0  0  0  0  0  0  0  0
   38.6360   35.6100   33.7730 C   0  0  0  0  0  0  0  0  0  0  0  0
   37.9910   33.4720   34.2350 N   0  0  0  0  0  0  0  0  0  0  0  0
   39.7480   37.9570   33.6660 C   0  0  0  0  0  0  0  0  0  0  0  0
   36.0050   35.6830   32.2070 C   0  0  0  0  0  0  0  0  0  0  0  0
   38.2420   38.8170   32.3510 N   0  0  0  0  0  0  0  0  0  0  0  0
   39.5780   35.0360   34.6370 O   0  0  0  0  0  0  0  0  0  0  0  0
   38.9140   33.8690   35.1130 C   0  0  0  0  0  0  0  0  0  0  0  0
   37.6970   34.5780   33.4480 C   0  0  0  0  0  0  0  0  0  0  0  0
   40.9670   37.9300   34.5120 C   0  0  0  0  0  0  0  0  0  0  0  0
  1  3  1  0
  2  9  1  0
  2  7  1  0
  3  2  1  0
  4  9  2  0
  6 14  2  0
  7 14  1  0
  7 12  1  0
  8 13  1  0
  9 15  1  0
 10  1  2  0
 10  6  1  0
 11  3  2  0
 11  4  1  0
 12 13  1  0
 14  8  1  0
 15  5  1  0
M  END
$$$$

     RDKit          3D

 11 11  0  0  0  0  0  0  0  0999 V2000
   42.4150   38.3170   28.9380 O   0  0  0  0  0  0  0  0  0  0  0  0
   40.1980   40.4280   31.0470 C   0  0  0  0  0  0  0  0  0  0  0  0
   39.2190   41.1190   30.7480 O   0  0  0  0  0  0  0  0  0  0  0  0
   41.1020   38.0160   29.4690 C   0  0  0  0  0  0  0  0  0  0  0  0
   41.1000   39.7630   33.2830 C   0  0  0  0  0  0  0  0  0  0  0  0
   41.1190   38.3600   32.7300 C   0  0  0  0  0  0  0  0  0  0  0  0
   40.0500   38.1200   31.6980 C   0  0  0  0  0  0  0  0  0  0  0  0
   40.4920   39.0040   30.5390 C   0  0  0  0  0  0  0  0  0  0  0  0
   41.0910   40.7330   32.1920 N   0  0  0  0  0  0  0  0  0  0  0  0
   42.4230   39.8480   33.9390 O   0  0  0  0  0  0  0  0  0  0  0  0
   41.1320   36.5830   30.0480 C   0  0  0  0  0  0  0  0  0  0  0  0
  1  4  1  0
  2  9  1  0
  3  2  2  0
  4 11  1  0
  5 10  1  0
  6  5  1  0
  7  6  1  0
  8  4  1  0
  8  2  1  0
  8  7  1  0
  9  5  1  0
M  END
$$$$

     RDKit          3D

 12 12  0  0  0  0  0  0  0  0999 V2000
   39.4660   37.9420   32.1570 C   0  0  0  0  0  0  0  0  0  0  0  0
   38.1150   38.1830   32.4060 C   0  0  0  0  0  0  0  0  0  0  0  0
   37.6240   35.7600   32.2260 C   0  0  0  0  0  0  0  0  0  0  0  0
   42.1040   36.8270   30.6020 O   0  0  0  0  0  0  0  0  0  0  0  0
   37.2160   37.1360   32.4110 C   0  0  0  0  0  0  0  0  0  0  0  0
   36.8180   34.6230   32.5290 C   0  0  0  0  0  0  0  0  0  0  0  0
   35.8850   37.3900   32.5940 N   0  0  0  0  0  0  0  0  0  0  0  0
   40.8210   39.1440   32.0870 Cl  0  0  0  0  0  0  0  0  0  0  0  0
   35.8570   33.8790   31.7940 C   0  0  0  0  0  0  0  0  0  0  0  0
   38.9180   35.6010   31.7160 C   0  0  0  0  0  0  0  0  0  0  0  0
   39.7840   36.6770   31.6890 C   0  0  0  0  0  0  0  0  0  0  0  0
   40.9520   36.5140   31.2180 C   0  0  0  0  0  0  0  0  0  0  0  0
  1  8  1  0
  1  2  1  0
  2  5  2  0
  3  5  1  0
  3  6  1  0
  4 12  2  0
  5  7  1  0
  9  6  1  0
 10  3  2  0
 11 10  1  0
 11  1  1  0
 12 11  2  0
M  END
$$$$

     RDKit          3D

 11 10  0  0  0  0  0  0  0  0999 V2000
   41.0380   38.6350   30.4130 C   0  0  0  0  0  0  0  0  0  0  0  0
   38.5200   38.3700   32.2820 O   0  0  0  0  0  0  0  0  0  0  0  0
   40.8590   38.6190   32.9640 C   0  0  0  0  0  0  0  0  0  0  0  0
   41.0840   38.2740   34.2440 N   0  0  0  0  0  0  0  0  0  0  0  0
   41.1040   37.7510   29.7050 O   0  0  0  0  0  0  0  0  0  0  0  0
   39.4380   39.1190   32.8000 C   0  0  0  0  0  0  0  0  0  0  0  0
   42.5800   37.3620   31.8070 O   0  0  0  0  0  0  0  0  0  0  0  0
   40.5940   40.0760   30.3170 C   0  0  0  0  0  0  0  0  0  0  0  0
   39.1610   40.2630   33.2430 O   0  0  0  0  0  0  0  0  0  0  0  0
   41.8140   38.5310   31.7400 C   0  0  0  0  0  0  0  0  0  0  0  0
   39.9330   40.3940   29.0330 C   0  0  0  0  0  0  0  0  0  0  0  0
  1 10  1  0
  2  6  2  0
  3  4  1  0
  5  1  2  0
  6  3  1  0
  6  9  1  0
  8  1  1  0
 10  7  1  0
 10  3  1  0
 11  8  1  0
M  END
$$$$

     RDKit          3D

 15 16  0  0  0  0  0  0  0  0999 V2000
   35.7380   33.3910   33.0400 C   0  0  0  0  0  0  0  0  0  0  0  0
   39.4440   35.0730   32.3970 C   0  0  0  0  0  0  0  0  0  0  0  0
   38.6330   38.8170   32.4780 C   0  0  0  0  0  0  0  0  0  0  0  0
   35.7380   34.9180   33.1700 C   0  0  0  0  0  0  0  0  0  0  0  0
   39.5070   39.2870   33.4780 O   0  0  0  0  0  0  0  0  0  0  0  0
   38.1780   34.6890   33.0990 C   0  0  0  0  0  0  0  0  0  0  0  0
   39.3280   31.2660   34.7800 O   0  0  0  0  0  0  0  0  0  0  0  0
   37.1350   35.5060   32.9510 C   0  0  0  0  0  0  0  0  0  0  0  0
   38.1910   33.3060   33.8290 C   0  0  0  0  0  0  0  0  0  0  0  0
   39.1570   32.6750   34.8160 C   0  0  0  0  0  0  0  0  0  0  0  0
   39.6610   36.4820   32.8250 C   0  0  0  0  0  0  0  0  0  0  0  0
   36.8890   32.6500   33.6250 C   0  0  0  0  0  0  0  0  0  0  0  0
   37.2530   36.7610   32.5810 N   0  0  0  0  0  0  0  0  0  0  0  0
   38.4300   37.3160   32.6550 C   0  0  0  0  0  0  0  0  0  0  0  0
   40.5030   36.5480   33.9500 O   0  0  0  0  0  0  0  0  0  0  0  0
  1  4  1  0
  1 12  1  0
  2 11  1  0
  3 14  1  0
  3  5  1  0
  6  2  1  0
  6  9  1  0
  7 10  1  0
  8  6  1  0
  8  4  1  0
  9 10  1  0
 11 15  1  0
 12  9  2  0
 13 14  2  0
 13  8  1  0
 14 11  1  0
M  END
$$$$
