
     RDKit          3D

 14 16  0  0  0  0  0  0  0  0999 V2000
   40.4490   33.6460   32.4880 O   0  0  0  0  0  0  0  0  0  0  0  0
   38.7070   35.4190   32.1590 C   0  0  0  0  0  0  0  0  0  0  0  0
   37.3930   34.2580   32.2880 C   0  0  0  0  0  0  0  0  0  0  0  0
   37.2570   37.8450   32.0850 C   0  0  0  0  0  0  0  0  0  0  0  0
   39.3910   36.1700   30.9450 C   0  0  0  0  0  0  0  0  0  0  0  0
   39.8270   32.5160   34.6480 N   0  0  0  0  0  0  0  0  0  0  0  0
   36.2230   35.1190   32.7280 C   0  0  0  0  0  0  0  0  0  0  0  0
   35.9120   34.2360   31.5920 C   0  0  0  0  0  0  0  0  0  0  0  0
   39.8210   34.7020   33.1130 C   0  0  0  0  0  0  0  0  0  0  0  0
   41.9220   36.2750   32.9710 O   0  0  0  0  0  0  0  0  0  0  0  0
   37.7640   33.2530   33.4220 C   0  0  0  0  0  0  0  0  0  0  0  0
   39.3370   33.3260   33.4750 C   0  0  0  0  0  0  0  0  0  0  0  0
   40.9430   35.6840   33.7340 C   0  0  0  0  0  0  0  0  0  0  0  0
   37.9930   36.3930   32.5920 O   0  0  0  0  0  0  0  0  0  0  0  0
  1  9  1  0
  1 12  1  0
  2  5  1  0
  2  3  1  0
  2 14  1  0
  2  9  1  0
  3  7  1  0
  3 11  1  0
  4 14  1  0
  8  3  1  0
  8  7  1  0
  9 12  1  0
  9 13  1  0
 10 13  1  0
 11 12  1  0
 12  6  1  0
M  END
$$$$

     RDKit          3D

 12 13  0  0  0  0  0  0  0  0999 V2000
   39.5890   35.5060   31.9770 C   0  0  0  0  0  0  0  0  0  0  0  0
   37.8160   37.4210   31.5870 C   0  0  0  0  0  0  0  0  0  0  0  0
   36.5710   36.4930   31.5720 C   0  0  0  0  0  0  0  0  0  0  0  0
   36.9300   35.5210   32.7380 C   0  0  0  0  0  0  0  0  0  0  0  0
   40.8480   34.9790   31.1420 C   0  0  0  0  0  0  0  0  0  0  0  0
   42.7110   35.7110   29.6890 O   0  0  0  0  0  0  0  0  0  0  0  0
   41.3360   37.3930   30.6480 C   0  0  0  0  0  0  0  0  0  0  0  0
   39.9860   37.6720   31.2590 C   0  0  0  0  0  0  0  0  0  0  0  0
   41.4100   35.9810   30.1530 C   0  0  0  0  0  0  0  0  0  0  0  0
   38.2390   34.8170   32.3140 C   0  0  0  0  0  0  0  0  0  0  0  0
   39.0520   36.6870   31.2600 N   0  0  0  0  0  0  0  0  0  0  0  0
   39.7750   38.6740   31.9050 O   0  0  0  0  0  0  0  0  0  0  0  0
  1  5  1  0
  1 10  1  0
  3  2  1  0
  3  4  1  0
  7  8  1  0
  8 11  1  0
  8 12  2  0
  9  6  1  0
  9  7  1  0
  9  5  1  0
 10  4  1  0
 11  2  1  0
 11  1  1  0
M  END
$$$$

     RDKit          3D

 11 11  0  0  0  0  0  0  0  0999 V2000
   37.1770   35.4670   31.6120 O   0  0  0  0  0  0  0  0  0  0  0  0
   40.4320   37.2750   32.2580 C   0  0  0  0  0  0  0  0  0  0  0  0
   38.4410   35.4820   31.9940 C   0  0  0  0  0  0  0  0  0  0  0  0
   40.0430   34.2740   33.5080 C   0  0  0  0  0  0  0  0  0  0  0  0
   43.4600   37.8000   32.2200 O   0  0  0  0  0  0  0  0  0  0  0  0
   40.6900   38.4870   32.0880 O   0  0  0  0  0  0  0  0  0  0  0  0
   38.8790   34.1930   32.5510 C   0  0  0  0  0  0  0  0  0  0  0  0
   41.2790   34.9950   32.9420 C   0  0  0  0  0  0  0  0  0  0  0  0
   42.8690   36.7270   32.2420 C   0  0  0  0  0  0  0  0  0  0  0  0
   41.5560   36.2940   32.5760 C   0  0  0  0  0  0  0  0  0  0  0  0
   39.0400   36.8380   32.0690 C   0  0  0  0  0  0  0  0  0  0  0  0
  2 10  1  0
  3  1  1  0
  3 11  1  0
  3  7  1  0
  5  9  2  0
  6  2  2  0
  7  4  1  0
  8  4  1  0
 10  9  1  0
 10  8  1  0
 11  2  1  0
M  END
$$$$

     RDKit          3D

  7  7  0  0  0  0  0  0  0  0999 V2000
   36.5220   32.5620   31.7440 C   0  0  0  0  0  0  0  0  0  0  0  0
   35.8450   31.5100   34.0690 N   0  0  0  0  0  0  0  0  0  0  0  0
   36.2650   31.5100   35.2260 N   0  0  0  0  0  0  0  0  0  0  0  0
   37.5550   31.6590   34.9350 C   0  0  0  0  0  0  0  0  0  0  0  0
   36.7390   31.7800   32.9100 N   0  0  0  0  0  0  0  0  0  0  0  0
   37.6190   31.6570   33.6370 C   0  0  0  0  0  0  0  0  0  0  0  0
   39.0680   31.3330   33.0000 N   0  0  0  0  0  0  0  0  0  0  0  0
  1  5  1  0
  2  3  1  0
  4  3  1  0
  5  6  1  0
  5  2  1  0
  6  7  1  0
  6  4  1  0
M  END
$$$$

     RDKit          3D

 21 22  0  0  0  0  0  0  0  0999 V2000
   37.6440   30.5910   33.7040 C   0  0  0  0  0  0  0  0  0  0  0  0
   38.4500   34.0000   33.4600 C   0  0  0  0  0  0  0  0  0  0  0  0
   39.5590   33.3120   33.2250 O   0  0  0  0  0  0  0  0  0  0  0  0
   39.3970   36.0760   32.4010 C   0  0  0  0  0  0  0  0  0  0  0  0
   40.2670   38.3430   31.5860 C   0  0  0  0  0  0  0  0  0  0  0  0
   38.3370   35.2940   32.9560 C   0  0  0  0  0  0  0  0  0  0  0  0
   43.2790   39.3570   33.5520 C   0  0  0  0  0  0  0  0  0  0  0  0
   35.3120   33.0540   35.3430 N   0  0  0  0  0  0  0  0  0  0  0  0
   42.6740   39.3370   32.4630 N   0  0  0  0  0  0  0  0  0  0  0  0
   38.0050   31.5570   36.0500 C   0  0  0  0  0  0  0  0  0  0  0  0
   44.2580   40.4270   33.9090 C   0  0  0  0  0  0  0  0  0  0  0  0
   40.6460   35.7510   32.7710 C   0  0  0  0  0  0  0  0  0  0  0  0
   42.8300   38.2660   34.2050 N   0  0  0  0  0  0  0  0  0  0  0  0
   37.4460   33.2050   34.1560 C   0  0  0  0  0  0  0  0  0  0  0  0
   41.5160   38.5060   32.4110 C   0  0  0  0  0  0  0  0  0  0  0  0
   35.8910   34.9530   34.3790 O   0  0  0  0  0  0  0  0  0  0  0  0
   41.0910   36.4720   34.0170 C   0  0  0  0  0  0  0  0  0  0  0  0
   37.5980   31.7590   34.6430 C   0  0  0  0  0  0  0  0  0  0  0  0
   41.6700   37.8190   33.6460 C   0  0  0  0  0  0  0  0  0  0  0  0
   39.0480   37.4230   31.7570 C   0  0  0  0  0  0  0  0  0  0  0  0
   36.1410   33.7790   34.6460 C   0  0  0  0  0  0  0  0  0  0  0  0
  1 18  1  0
  3  2  1  0
  4 12  1  0
  4  6  1  0
  5 20  1  0
  5 15  2  0
  6  2  2  3
  7 11  1  0
  7 13  1  0
  9  7  2  0
 12 17  1  0
 14  2  1  0
 14 18  1  0
 14 21  1  0
 15  9  1  0
 15 19  1  0
 16 21  2  0
 18 10  1  0
 19 17  1  0
 19 13  1  0
 20  4  1  0
 21  8  1  0
M  END
$$$$

     RDKit          3D

  9  9  0  0  0  0  0  0  0  0999 V2000
   41.7770   37.9270   30.4590 C   0  0  0  0  0  0  0  0  0  0  0  0
   44.3190   36.0900   28.9990 C   0  0  0  0  0  0  0  0  0  0  0  0
   42.4270   34.8540   28.2440 C   0  0  0  0  0  0  0  0  0  0  0  0
   42.4990   38.5010   29.5580 C   0  0  0  0  0  0  0  0  0  0  0  0
   41.9800   36.2990   30.3070 C   0  0  0  0  0  0  0  0  0  0  0  0
   42.4210   37.5400   28.3330 C   0  0  0  0  0  0  0  0  0  0  0  0
   42.0810   40.9660   28.9390 O   0  0  0  0  0  0  0  0  0  0  0  0
   42.4330   40.0010   29.4640 C   0  0  0  0  0  0  0  0  0  0  0  0
   42.6880   36.1810   28.9750 C   0  0  0  0  0  0  0  0  0  0  0  0
  3  9  1  0
  4  8  1  0
  4  1  1  0
  5  1  1  0
  6  9  1  0
  6  4  1  0
  7  8  2  0
  9  2  1  0
  9  5  1  0
M  END
$$$$

     RDKit          3D

  8  8  0  0  0  0  0  0  0  0999 V2000
   35.7000   36.7710   32.0290 C   0  0  0  0  0  0  0  0  0  0  0  0
   39.2290   34.0330   31.6290 C   0  0  0  0  0  0  0  0  0  0  0  0
   37.0340   36.0410   32.0710 C   0  0  0  0  0  0  0  0  0  0  0  0
   39.5530   35.3830   31.9260 N   0  0  0  0  0  0  0  0  0  0  0  0
   37.9120   33.7560   32.3510 C   0  0  0  0  0  0  0  0  0  0  0  0
   38.4970   36.4390   31.7880 C   0  0  0  0  0  0  0  0  0  0  0  0
   40.9420   35.7300   31.7460 C   0  0  0  0  0  0  0  0  0  0  0  0
   36.9050   34.6070   31.7210 N   0  0  0  0  0  0  0  0  0  0  0  0
  2  4  1  0
  2  5  1  0
  3  1  1  0
  6  4  1  0
  6  3  1  0
  7  4  1  0
  8  3  1  0
  8  5  1  0
M  END
$$$$

     RDKit          3D

 14 14  0  0  0  0  0  0  0  0999 V2000
   38.6550   33.2970   35.1240 O   0  0  0  0  0  0  0  0  0  0  0  0
   37.4090   33.9910   33.4150 C   0  0  0  0  0  0  0  0  0  0  0  0
   41.8680   39.2730   32.4660 C   0  0  0  0  0  0  0  0  0  0  0  0
   37.3810   34.4610   32.1410 C   0  0  0  0  0  0  0  0  0  0  0  0
   39.7400   34.5820   33.5720 C   0  0  0  0  0  0  0  0  0  0  0  0
   40.8960   37.2090   31.8720 C   0  0  0  0  0  0  0  0  0  0  0  0
   39.6690   35.2330   32.3610 C   0  0  0  0  0  0  0  0  0  0  0  0
   41.3130   38.2870   31.9380 C   0  0  0  0  0  0  0  0  0  0  0  0
   38.6380   33.9230   34.0510 C   0  0  0  0  0  0  0  0  0  0  0  0
   42.5520   39.2560   33.8080 C   0  0  0  0  0  0  0  0  0  0  0  0
   41.8720   40.5850   31.8090 C   0  0  0  0  0  0  0  0  0  0  0  0
   40.7490   35.9150   31.9520 N   0  0  0  0  0  0  0  0  0  0  0  0
   36.5930   33.0640   34.0230 O   0  0  0  0  0  0  0  0  0  0  0  0
   38.4290   35.2760   31.6490 C   0  0  0  0  0  0  0  0  0  0  0  0
  2 13  1  0
  2  9  1  0
  3 10  1  0
  4  2  1  0
  5  9  1  0
  6  8  3  0
  6 12  1  0
  7  5  2  0
  8  3  1  0
  9  1  2  0
 11  3  1  0
 12  7  1  0
 14  4  1  0
 14  7  1  0
M  END
$$$$

     RDKit          3D

  7  6  0  0  0  0  0  0  0  0999 V2000
   37.9070   36.1920   32.6420 C   0  0  0  0  0  0  0  0  0  0  0  0
   37.7580   32.6750   32.7730 N   0  0  0  0  0  0  0  0  0  0  0  0
   38.2640   33.8390   33.3410 C   0  0  0  0  0  0  0  0  0  0  0  0
   39.9130   34.2070   31.6620 N   0  0  0  0  0  0  0  0  0  0  0  0
   38.8270   34.8950   32.4010 C   0  0  0  0  0  0  0  0  0  0  0  0
   39.0390   37.2110   31.7890 C   0  0  0  0  0  0  0  0  0  0  0  0
   39.8990   36.4860   30.9170 O   0  0  0  0  0  0  0  0  0  0  0  0
  2  3  1  0
  5  4  1  0
  5  1  1  0
  5  3  1  0
  6  1  1  0
  7  6  1  0
M  END
$$$$

     RDKit          3D

 12 11  0  0  0  0  0  0  0  0999 V2000
   45.4350   38.9370   30.4310 C   0  0  0  0  0  0  0  0  0  0  0  0
   41.1260   35.9310   30.1440 C   0  0  0  0  0  0  0  0  0  0  0  0
   44.3580   37.2340   28.5820 C   0  0  0  0  0  0  0  0  0  0  0  0
   40.3130   36.7290   31.2280 C   0  0  0  0  0  0  0  0  0  0  0  0
   47.3320   36.6730   28.5720 C   0  0  0  0  0  0  0  0  0  0  0  0
   38.7550   36.3010   31.2920 C   0  0  0  0  0  0  0  0  0  0  0  0
   46.8590   38.0700   28.5050 C   0  0  0  0  0  0  0  0  0  0  0  0
   43.2180   37.2890   29.6070 C   0  0  0  0  0  0  0  0  0  0  0  0
   42.4860   36.0360   29.7930 C   0  0  0  0  0  0  0  0  0  0  0  0
   45.4740   38.1270   29.1470 C   0  0  0  0  0  0  0  0  0  0  0  0
   42.6920   38.4280   29.6630 O   0  0  0  0  0  0  0  0  0  0  0  0
   46.1550   40.2680   30.3420 C   0  0  0  0  0  0  0  0  0  0  0  0
  2  4  1  0
  3 10  1  0
  3  8  1  0
  4  6  1  0
  7  5  1  0
  7 10  1  0
  8 11  2  0
  8  9  1  0
  9  2  1  0
 10  1  1  0
 12  1  1  0
M  END
$$$$

     RDKit          3D

  9  9  0  0  0  0  0  0  0  0999 V2000
   38.7890   34.2490   32.2780 N   0  0  0  0  0  0  0  0  0  0  0  0
   40.2510   35.3490   31.0400 C   0  0  0  0  0  0  0  0  0  0  0  0
   37.9970   36.5870   31.4140 C   0  0  0  0  0  0  0  0  0  0  0  0
   39.1750   35.6300   31.5750 C   0  0  0  0  0  0  0  0  0  0  0  0
   36.5890   36.2150   31.7560 C   0  0  0  0  0  0  0  0  0  0  0  0
   40.5440   34.0230   31.0510 C   0  0  0  0  0  0  0  0  0  0  0  0
   39.8190   33.7850   31.8330 C   0  0  0  0  0  0  0  0  0  0  0  0
   38.2410   37.9410   31.6290 O   0  0  0  0  0  0  0  0  0  0  0  0
   36.2160   36.0740   33.1320 O   0  0  0  0  0  0  0  0  0  0  0  0
  2  6  1  0
  2  4  1  0
  3  8  1  0
  3  5  1  0
  4  3  1  0
  4  1  1  0
  5  9  1  0
  6  7  1  0
  7  1  1  0
M  END
$$$$

     RDKit          3D

 13 12  0  0  0  0  0  0  0  0999 V2000
   31.2520   34.1570   33.0920 C   0  0  0  0  0  0  0  0  0  0  0  0
   34.4370   36.1140   31.7600 C   0  0  0  0  0  0  0  0  0  0  0  0
   37.1720   35.8100   31.3700 C   0  0  0  0  0  0  0  0  0  0  0  0
   41.9650   36.7260   30.8780 C   0  0  0  0  0  0  0  0  0  0  0  0
   39.7230   36.1170   31.9130 C   0  0  0  0  0  0  0  0  0  0  0  0
   44.1550   37.6050   30.0720 C   0  0  0  0  0  0  0  0  0  0  0  0
   35.8700   35.8160   32.2520 C   0  0  0  0  0  0  0  0  0  0  0  0
   43.1920   37.4130   31.1080 N   0  0  0  0  0  0  0  0  0  0  0  0
   30.8560   36.7310   32.0490 C   0  0  0  0  0  0  0  0  0  0  0  0
   41.0930   36.7450   32.1290 C   0  0  0  0  0  0  0  0  0  0  0  0
   33.2100   35.7950   32.6450 C   0  0  0  0  0  0  0  0  0  0  0  0
   31.7940   35.4990   32.0090 C   0  0  0  0  0  0  0  0  0  0  0  0
   38.3470   36.4290   32.1280 C   0  0  0  0  0  0  0  0  0  0  0  0
  2  7  2  3
  2 11  1  0
  3 13  1  0
  3  7  1  0
  4  8  1  0
  4 10  1  0
  5 13  1  0
  5 10  1  0
  6  8  1  0
 12  9  1  0
 12 11  1  0
 12  1  1  0
M  END
$$$$

     RDKit          3D

 12 11  0  0  0  0  0  0  0  0999 V2000
   39.3840   35.2830   30.4520 O   0  0  0  0  0  0  0  0  0  0  0  0
   41.3670   38.0570   31.5590 C   0  0  0  0  0  0  0  0  0  0  0  0
   36.9070   35.6230   31.9670 C   0  0  0  0  0  0  0  0  0  0  0  0
   41.9120   36.0310   29.7810 C   0  0  0  0  0  0  0  0  0  0  0  0
   39.9610   35.9270   31.3110 C   0  0  0  0  0  0  0  0  0  0  0  0
   39.0690   36.4750   32.2430 C   0  0  0  0  0  0  0  0  0  0  0  0
   41.4250   36.2220   31.2640 C   0  0  0  0  0  0  0  0  0  0  0  0
   42.6400   37.1380   28.8030 C   0  0  0  0  0  0  0  0  0  0  0  0
   34.9560   36.2820   33.3290 O   0  0  0  0  0  0  0  0  0  0  0  0
   35.6200   36.0200   32.7120 C   0  0  0  0  0  0  0  0  0  0  0  0
   36.8460   36.5470   30.8680 O   0  0  0  0  0  0  0  0  0  0  0  0
   38.0840   35.4700   32.5630 C   0  0  0  0  0  0  0  0  0  0  0  0
  1  5  2  0
  3 11  1  0
  3 12  1  0
  3 10  1  0
  4  7  1  0
  5  6  1  0
  6 12  1  0
  7  5  1  0
  7  2  1  0
  8  4  1  0
 10  9  1  0
M  END
$$$$

     RDKit          3D

 10 10  0  0  0  0  0  0  0  0999 V2000
   42.9610   35.9360   31.3070 C   0  0  0  0  0  0  0  0  0  0  0  0
   43.1920   37.3400   31.1710 C   0  0  0  0  0  0  0  0  0  0  0  0
   40.8160   37.8230   31.3810 C   0  0  0  0  0  0  0  0  0  0  0  0
   39.2090   35.6980   31.7300 C   0  0  0  0  0  0  0  0  0  0  0  0
   38.2250   37.9450   30.9480 O   0  0  0  0  0  0  0  0  0  0  0  0
   36.9600   36.7140   31.6790 O   0  0  0  0  0  0  0  0  0  0  0  0
   38.0820   36.8770   31.3970 C   0  0  0  0  0  0  0  0  0  0  0  0
   42.1690   38.2180   31.5460 C   0  0  0  0  0  0  0  0  0  0  0  0
   41.6670   35.5160   31.6030 C   0  0  0  0  0  0  0  0  0  0  0  0
   40.5690   36.4610   31.5430 C   0  0  0  0  0  0  0  0  0  0  0  0
  1  9  1  0
  2  1  2  0
  2  8  1  0
  3 10  1  0
  3  8  2  0
  5  7  2  0
  7  6  1  0
  7  4  1  0
 10  9  2  0
 10  4  1  0
M  END
$$$$

     RDKit          3D

  3  2  0  0  0  0  0  0  0  0999 V2000
   40.5200   34.6710   30.8660 C   0  0  0  0  0  0  0  0  0  0  0  0
   39.7120   36.9790   30.9910 O   0  0  0  0  0  0  0  0  0  0  0  0
   39.6800   35.8610   30.5570 C   0  0  0  0  0  0  0  0  0  0  0  0
  3  1  1  0
  3  2  2  0
M  END
$$$$

     RDKit          3D

  8  7  0  0  0  0  0  0  0  0999 V2000
   40.8090   34.8550   31.2150 C   0  0  0  0  0  0  0  0  0  0  0  0
   38.9110   36.1100   31.5280 C   0  0  0  0  0  0  0  0  0  0  0  0
   40.9080   35.7440   30.1800 O   0  0  0  0  0  0  0  0  0  0  0  0
   42.2660   35.6900   29.6340 C   0  0  0  0  0  0  0  0  0  0  0  0
   38.5250   38.0680   32.1270 O   0  0  0  0  0  0  0  0  0  0  0  0
   40.6560   37.2550   32.5190 O   0  0  0  0  0  0  0  0  0  0  0  0
   39.3800   34.7150   31.8830 C   0  0  0  0  0  0  0  0  0  0  0  0
   39.4820   37.1640   32.1250 N   0  0  0  0  0  0  0  0  0  0  0  0
  1  7  1  0
  2  7  1  0
  2  8  1  0
  3  1  1  0
  4  3  1  0
  8  5  2  0
  8  6  2  0
M  END
$$$$

     RDKit          3D

 10 10  0  0  0  0  0  0  0  0999 V2000
   43.6120   40.4910   30.6720 O   0  0  0  0  0  0  0  0  0  0  0  0
   44.0240   35.2880   28.8230 O   0  0  0  0  0  0  0  0  0  0  0  0
   41.4170   39.0320   29.3350 O   0  0  0  0  0  0  0  0  0  0  0  0
   42.5810   36.9360   29.6260 C   0  0  0  0  0  0  0  0  0  0  0  0
   45.6720   36.4560   30.9450 O   0  0  0  0  0  0  0  0  0  0  0  0
   42.4420   38.3690   30.0170 C   0  0  0  0  0  0  0  0  0  0  0  0
   44.0120   36.5520   29.3420 C   0  0  0  0  0  0  0  0  0  0  0  0
   43.7020   39.2440   29.9680 C   0  0  0  0  0  0  0  0  0  0  0  0
   44.9120   37.0470   30.1140 C   0  0  0  0  0  0  0  0  0  0  0  0
   44.9460   38.5490   30.4940 C   0  0  0  0  0  0  0  0  0  0  0  0
  4  6  1  0
  6  3  1  0
  7  2  1  0
  7  4  1  0
  7  9  1  0
  8  6  1  0
  8 10  1  0
  8  1  1  0
  9 10  1  0
  9  5  2  0
M  END
$$$$

     RDKit          3D

 10 11  0  0  0  0  0  0  0  0999 V2000
   39.5010   34.4040   32.8800 C   0  0  0  0  0  0  0  0  0  0  0  0
   38.7560   35.0700   33.6660 C   0  0  0  0  0  0  0  0  0  0  0  0
   39.0230   32.7580   32.8630 C   0  0  0  0  0  0  0  0  0  0  0  0
   40.0640   35.2700   31.8100 C   0  0  0  0  0  0  0  0  0  0  0  0
   40.4800   35.7630   33.1530 O   0  0  0  0  0  0  0  0  0  0  0  0
   38.3740   36.8050   30.5810 C   0  0  0  0  0  0  0  0  0  0  0  0
   38.8940   36.3050   31.6250 C   0  0  0  0  0  0  0  0  0  0  0  0
   38.5890   38.2300   30.6890 O   0  0  0  0  0  0  0  0  0  0  0  0
   38.1330   36.1510   32.9910 O   0  0  0  0  0  0  0  0  0  0  0  0
   38.9160   34.5690   35.0530 F   0  0  0  0  0  0  0  0  0  0  0  0
  1  3  1  0
  1  5  1  0
  1  2  1  0
  2 10  1  0
  4  1  1  0
  4  5  1  0
  6  8  1  0
  7  6  1  0
  7  4  1  0
  7  9  1  0
  9  2  1  0
M  END
$$$$

     RDKit          3D

 11 10  0  0  0  0  0  0  0  0999 V2000
   38.9100   33.1350   35.3910 C   0  0  0  0  0  0  0  0  0  0  0  0
   41.6110   38.7200   30.4810 C   0  0  0  0  0  0  0  0  0  0  0  0
   42.0010   36.4820   33.5930 N   0  0  0  0  0  0  0  0  0  0  0  0
   38.5840   32.5550   36.4400 O   0  0  0  0  0  0  0  0  0  0  0  0
   40.3860   36.7840   31.5830 C   0  0  0  0  0  0  0  0  0  0  0  0
   40.9880   38.1270   31.7280 C   0  0  0  0  0  0  0  0  0  0  0  0
   40.6050   34.8400   34.6340 C   0  0  0  0  0  0  0  0  0  0  0  0
   39.9590   34.7230   35.8970 C   0  0  0  0  0  0  0  0  0  0  0  0
   39.7530   36.2040   32.8220 C   0  0  0  0  0  0  0  0  0  0  0  0
   39.5960   36.4870   30.4870 O   0  0  0  0  0  0  0  0  0  0  0  0
   40.8530   35.8990   33.8060 C   0  0  0  0  0  0  0  0  0  0  0  0
  1  8  1  0
  1  4  1  0
  2  6  1  0
  3 11  2  0
  5 10  1  0
  5  6  1  0
  5  9  1  0
  7  8  1  0
  9 11  1  0
 11  7  1  0
M  END
$$$$

     RDKit          3D

 10  9  0  0  0  0  0  0  0  0999 V2000
   38.2460   37.5760   30.6650 C   0  0  0  0  0  0  0  0  0  0  0  0
   41.9250   35.3870   30.5480 O   0  0  0  0  0  0  0  0  0  0  0  0
   37.5620   36.7290   31.6140 N   0  0  0  0  0  0  0  0  0  0  0  0
   40.5310   38.8980   30.8760 C   0  0  0  0  0  0  0  0  0  0  0  0
   39.4970   36.6910   32.5530 O   0  0  0  0  0  0  0  0  0  0  0  0
   39.6140   34.6860   31.3530 O   0  0  0  0  0  0  0  0  0  0  0  0
   39.1160   38.8020   30.9980 C   0  0  0  0  0  0  0  0  0  0  0  0
   40.0590   36.0480   31.6040 C   0  0  0  0  0  0  0  0  0  0  0  0
   41.3950   37.8350   30.9270 N   0  0  0  0  0  0  0  0  0  0  0  0
   41.1030   36.5230   30.6220 C   0  0  0  0  0  0  0  0  0  0  0  0
  1  7  1  0
  1  3  1  0
  4  9  1  0
  4  7  1  0
  6  8  2  0
  8  5  1  0
 10  2  1  0
 10  9  1  0
 10  8  1  0
M  END
$$$$
