
     RDKit          3D

  8  7  0  0  0  0  0  0  0  0999 V2000
   41.2680   41.7060   28.5840 C   0  0  0  0  0  0  0  0  0  0  0  0
   40.3450   41.4740   29.7560 C   0  0  0  0  0  0  0  0  0  0  0  0
   39.1270   40.9000   29.2070 C   0  0  0  0  0  0  0  0  0  0  0  0
   39.2310   40.8270   27.7850 O   0  0  0  0  0  0  0  0  0  0  0  0
   39.4980   38.7670   29.1990 C   0  0  0  0  0  0  0  0  0  0  0  0
   38.7600   39.5790   29.7610 C   0  0  0  0  0  0  0  0  0  0  0  0
   38.1170   41.8700   29.5130 C   0  0  0  0  0  0  0  0  0  0  0  0
   40.1680   42.8410   30.3290 C   0  0  0  0  0  0  0  0  0  0  0  0
  1  2  1  0
  2  8  1  0
  3  7  1  0
  3  2  1  0
  3  6  1  0
  4  3  1  0
  5  6  1  0
M  END
$$$$

     RDKit          3D

  9  9  0  0  0  0  0  0  0  0999 V2000
   41.5710   41.9000   30.4360 C   0  0  0  0  0  0  0  0  0  0  0  0
   42.8920   43.1290   28.3580 O   0  0  0  0  0  0  0  0  0  0  0  0
   41.7570   42.4280   28.7130 P   0  0  0  0  0  0  0  0  0  0  0  0
   40.4460   38.6800   30.4690 N   0  0  0  0  0  0  0  0  0  0  0  0
   40.1130   39.8370   29.5610 C   0  0  0  0  0  0  0  0  0  0  0  0
   41.0500   39.7680   28.2760 C   0  0  0  0  0  0  0  0  0  0  0  0
   40.7950   43.6400   28.8310 O   0  0  0  0  0  0  0  0  0  0  0  0
   41.6340   41.0680   27.9330 O   0  0  0  0  0  0  0  0  0  0  0  0
   40.3920   40.9690   30.6110 C   0  0  0  0  0  0  0  0  0  0  0  0
  1  9  1  0
  3  2  2  0
  3  7  1  0
  3  1  1  0
  5  4  1  0
  5  9  1  0
  6  5  1  0
  8  6  1  0
  8  3  1  0
M  END
$$$$

     RDKit          3D

 12 13  0  0  0  0  0  0  0  0999 V2000
   40.0040   40.7170   29.1810 C   0  0  0  0  0  0  0  0  0  0  0  0
   38.8790   39.3430   28.4150 O   0  0  0  0  0  0  0  0  0  0  0  0
   42.8030   41.9750   33.9130 C   0  0  0  0  0  0  0  0  0  0  0  0
   39.7500   41.8920   30.9420 N   0  0  0  0  0  0  0  0  0  0  0  0
   41.1220   41.5410   31.1020 C   0  0  0  0  0  0  0  0  0  0  0  0
   39.0970   41.4230   29.7030 C   0  0  0  0  0  0  0  0  0  0  0  0
   43.3200   42.1570   35.2610 C   0  0  0  0  0  0  0  0  0  0  0  0
   41.4100   40.7160   32.2930 C   0  0  0  0  0  0  0  0  0  0  0  0
   41.3370   40.5410   29.8900 C   0  0  0  0  0  0  0  0  0  0  0  0
   38.7800   43.1180   29.3430 O   0  0  0  0  0  0  0  0  0  0  0  0
   38.7950   40.6380   28.9680 C   0  0  0  0  0  0  0  0  0  0  0  0
   42.0860   41.5770   33.1600 C   0  0  0  0  0  0  0  0  0  0  0  0
  1  6  1  0
  1  9  1  0
  3  7  1  0
  4  5  1  0
  5  8  1  0
  6 10  1  0
  6  4  1  0
  8 12  1  0
  9  5  1  0
 11  2  1  0
 11  1  1  0
 11  6  1  0
 12  3  1  0
M  END
$$$$

     RDKit          3D

 23 24  0  0  0  0  0  0  0  0999 V2000
   38.0930   33.0440   33.7110 C   0  0  0  0  0  0  0  0  0  0  0  0
   40.0570   40.6380   30.7790 C   0  0  0  0  0  0  0  0  0  0  0  0
   38.6590   41.3720   32.4790 O   0  0  0  0  0  0  0  0  0  0  0  0
   39.0770   38.7570   32.5300 C   0  0  0  0  0  0  0  0  0  0  0  0
   41.2720   40.9390   29.8530 C   0  0  0  0  0  0  0  0  0  0  0  0
   38.4090   34.1360   32.9150 C   0  0  0  0  0  0  0  0  0  0  0  0
   38.8220   37.3080   32.3770 N   0  0  0  0  0  0  0  0  0  0  0  0
   39.5420   41.6770   31.6100 C   0  0  0  0  0  0  0  0  0  0  0  0
   37.7030   32.7250   36.0730 N   0  0  0  0  0  0  0  0  0  0  0  0
   42.5280   40.2020   30.3000 C   0  0  0  0  0  0  0  0  0  0  0  0
   38.0990   34.8510   35.1500 C   0  0  0  0  0  0  0  0  0  0  0  0
   37.8130   33.4730   34.9750 C   0  0  0  0  0  0  0  0  0  0  0  0
   38.4840   36.6900   33.6370 C   0  0  0  0  0  0  0  0  0  0  0  0
   41.5280   42.3760   30.0170 O   0  0  0  0  0  0  0  0  0  0  0  0
   40.0250   42.7970   31.6660 O   0  0  0  0  0  0  0  0  0  0  0  0
   38.2130   39.0140   33.8260 C   0  0  0  0  0  0  0  0  0  0  0  0
   39.4700   39.2530   31.0510 C   0  0  0  0  0  0  0  0  0  0  0  0
   41.1740   40.2530   28.4500 C   0  0  0  0  0  0  0  0  0  0  0  0
   39.3540   36.7200   31.1970 C   0  0  0  0  0  0  0  0  0  0  0  0
   38.3690   35.3310   33.8550 C   0  0  0  0  0  0  0  0  0  0  0  0
   38.0760   37.6990   34.6690 C   0  0  0  0  0  0  0  0  0  0  0  0
   38.1480   31.8960   33.3180 O   0  0  0  0  0  0  0  0  0  0  0  0
   38.6730   34.0630   31.4320 C   0  0  0  0  0  0  0  0  0  0  0  0
  1 12  1  0
  2 17  1  0
  2  8  1  0
  4 17  1  0
  4 16  1  0
  5 14  1  0
  5 10  1  0
  5  2  1  0
  6 23  1  0
  6  1  1  0
  6 20  1  0
  7  4  1  0
  7 13  1  0
  8 15  2  0
  8  3  1  0
 12 11  2  0
 12  9  1  0
 13 20  2  3
 13 21  1  0
 16 21  1  0
 18  5  1  0
 19  7  1  0
 20 11  1  0
 22  1  2  0
M  END
$$$$

     RDKit          3D

 25 25  0  0  0  0  0  0  0  0999 V2000
   44.4750   42.6670   31.7930 C   0  0  0  0  0  0  0  0  0  0  0  0
   41.6160   40.3460   33.6070 C   0  0  0  0  0  0  0  0  0  0  0  0
   43.7710   43.2770   31.0120 O   0  0  0  0  0  0  0  0  0  0  0  0
   36.2740   33.7190   30.6290 O   0  0  0  0  0  0  0  0  0  0  0  0
   39.7720   37.4270   34.1240 N   0  0  0  0  0  0  0  0  0  0  0  0
   41.3530   38.6740   35.4970 C   0  0  0  0  0  0  0  0  0  0  0  0
   39.9380   38.1560   35.3730 C   0  0  0  0  0  0  0  0  0  0  0  0
   39.3960   38.0010   32.8570 C   0  0  0  0  0  0  0  0  0  0  0  0
   34.6490   35.7170   34.6980 C   0  0  0  0  0  0  0  0  0  0  0  0
   42.6820   41.1830   32.8540 C   0  0  0  0  0  0  0  0  0  0  0  0
   38.6730   37.0860   31.8070 C   0  0  0  0  0  0  0  0  0  0  0  0
   36.4860   36.8280   33.6190 C   0  0  0  0  0  0  0  0  0  0  0  0
   33.5610   36.1950   35.2120 O   0  0  0  0  0  0  0  0  0  0  0  0
   41.8280   39.4750   34.3660 N   0  0  0  0  0  0  0  0  0  0  0  0
   35.5680   34.7280   32.6750 C   0  0  0  0  0  0  0  0  0  0  0  0
   45.6370   42.3760   31.6380 O   0  0  0  0  0  0  0  0  0  0  0  0
   34.5670   34.8290   33.6370 C   0  0  0  0  0  0  0  0  0  0  0  0
   35.3090   33.8740   31.4350 C   0  0  0  0  0  0  0  0  0  0  0  0
   43.5370   42.4750   32.7740 C   0  0  0  0  0  0  0  0  0  0  0  0
   35.7960   36.5380   34.8800 N   0  0  0  0  0  0  0  0  0  0  0  0
   36.6960   35.5810   32.8070 C   0  0  0  0  0  0  0  0  0  0  0  0
   34.3680   33.0630   31.3620 O   0  0  0  0  0  0  0  0  0  0  0  0
   43.4520   43.3750   33.6840 N   0  0  0  0  0  0  0  0  0  0  0  0
   38.1720   35.7320   32.0150 S   0  0  0  0  0  0  0  0  0  0  0  0
   39.4590   37.1270   30.6310 O   0  0  0  0  0  0  0  0  0  0  0  0
  1 19  1  0
  2 14  1  0
  3  1  2  0
  4 18  2  0
  5  7  1  0
  7  6  1  0
  8  5  1  0
  9 20  1  0
  9 13  2  0
 10  2  1  0
 11 25  1  0
 11 24  1  0
 11  8  1  0
 12 20  1  0
 14  6  1  0
 15 21  1  0
 15 17  2  0
 16  1  1  0
 17  9  1  0
 18 15  1  0
 19 10  1  0
 19 23  2  0
 21 24  1  0
 21 12  1  0
 22 18  1  0
M  END
$$$$

     RDKit          3D

 12 11  0  0  0  0  0  0  0  0999 V2000
   39.9650   42.4850   30.3660 C   0  0  0  0  0  0  0  0  0  0  0  0
   39.8590   37.9540   30.0750 O   0  0  0  0  0  0  0  0  0  0  0  0
   38.7520   42.8430   27.4280 O   0  0  0  0  0  0  0  0  0  0  0  0
   38.5360   41.5700   31.2840 F   0  0  0  0  0  0  0  0  0  0  0  0
   40.4300   42.9710   31.5300 O   0  0  0  0  0  0  0  0  0  0  0  0
   39.0870   40.8440   29.4560 C   0  0  0  0  0  0  0  0  0  0  0  0
   39.9100   43.2220   27.9680 C   0  0  0  0  0  0  0  0  0  0  0  0
   40.1980   43.1910   29.2760 N   0  0  0  0  0  0  0  0  0  0  0  0
   39.1000   41.6070   30.3260 C   0  0  0  0  0  0  0  0  0  0  0  0
   38.5430   39.7720   30.3910 C   0  0  0  0  0  0  0  0  0  0  0  0
   39.3310   38.8670   30.4850 C   0  0  0  0  0  0  0  0  0  0  0  0
   40.6790   43.7740   27.1850 O   0  0  0  0  0  0  0  0  0  0  0  0
  1  5  2  0
  2 11  2  0
  3  7  1  0
  6  9  1  0
  6 10  1  0
  7  8  1  0
  8  1  1  0
  9  1  1  0
  9  4  1  0
 10 11  1  0
 12  7  2  0
M  END
$$$$

     RDKit          3D

  6  5  0  0  0  0  0  0  0  0999 V2000
   44.0700   43.5180   28.9530 O   0  0  0  0  0  0  0  0  0  0  0  0
   42.2910   40.0920   31.1870 O   0  0  0  0  0  0  0  0  0  0  0  0
   42.2130   43.4930   29.9670 O   0  0  0  0  0  0  0  0  0  0  0  0
   43.4270   40.7500   30.5500 C   0  0  0  0  0  0  0  0  0  0  0  0
   43.5390   42.2240   31.2520 C   0  0  0  0  0  0  0  0  0  0  0  0
   43.4130   43.1900   30.0810 C   0  0  0  0  0  0  0  0  0  0  0  0
  1  6  2  0
  3  6  1  0
  4  2  1  0
  4  5  1  0
  6  5  1  0
M  END
$$$$

     RDKit          3D

 19 18  0  0  0  0  0  0  0  0999 V2000
   41.0870   41.5060   32.6310 O   0  0  0  0  0  0  0  0  0  0  0  0
   39.8900   41.7520   32.3980 C   0  0  0  0  0  0  0  0  0  0  0  0
   40.4030   41.1130   28.8110 O   0  0  0  0  0  0  0  0  0  0  0  0
   33.5000   36.2350   35.2920 O   0  0  0  0  0  0  0  0  0  0  0  0
   42.0100   39.7730   29.4080 O   0  0  0  0  0  0  0  0  0  0  0  0
   35.2400   39.6910   31.5600 C   0  0  0  0  0  0  0  0  0  0  0  0
   38.1550   40.1110   32.0650 N   0  0  0  0  0  0  0  0  0  0  0  0
   39.1420   40.8810   31.4060 C   0  0  0  0  0  0  0  0  0  0  0  0
   35.0090   36.6840   33.0070 C   0  0  0  0  0  0  0  0  0  0  0  0
   39.2980   42.6480   32.9890 O   0  0  0  0  0  0  0  0  0  0  0  0
   35.1100   35.5660   33.9630 N   0  0  0  0  0  0  0  0  0  0  0  0
   40.2020   39.9120   30.8640 C   0  0  0  0  0  0  0  0  0  0  0  0
   37.7950   38.8550   31.6540 C   0  0  0  0  0  0  0  0  0  0  0  0
   33.7920   35.2880   34.5170 C   0  0  0  0  0  0  0  0  0  0  0  0
   40.9540   40.3670   29.6500 C   0  0  0  0  0  0  0  0  0  0  0  0
   36.2860   38.6040   31.5450 C   0  0  0  0  0  0  0  0  0  0  0  0
   36.1910   38.5700   33.9150 O   0  0  0  0  0  0  0  0  0  0  0  0
   35.8440   37.9810   32.8290 C   0  0  0  0  0  0  0  0  0  0  0  0
   33.7480   37.2970   33.0940 O   0  0  0  0  0  0  0  0  0  0  0  0
  2  1  2  0
  2 10  1  0
  3 15  2  0
  5 15  1  0
  8 12  1  0
  8  7  1  0
  8  2  1  0
  9 19  1  0
  9 11  1  0
 11 14  1  0
 13  7  1  0
 14  4  1  0
 15 12  1  0
 16  6  1  0
 16 13  1  0
 16 18  1  0
 18  9  1  0
 18 17  2  0
M  END
$$$$

     RDKit          3D

  1  0  0  0  0  0  0  0  0  0999 V2000
  -14.6450 -120.9760   43.5620 O   0  0  0  0  0  0  0  0  0  0  0  0
M  END
$$$$

     RDKit          3D

  8  7  0  0  0  0  0  0  0  0999 V2000
   39.2130   37.2280   30.3460 O   0  0  0  0  0  0  0  0  0  0  0  0
   38.9430   40.3100   31.4510 C   0  0  0  0  0  0  0  0  0  0  0  0
   40.1520   38.8500   28.6740 O   0  0  0  0  0  0  0  0  0  0  0  0
   40.8980   38.9260   30.8030 O   0  0  0  0  0  0  0  0  0  0  0  0
   40.2550   41.2290   33.3830 C   0  0  0  0  0  0  0  0  0  0  0  0
   38.5080   39.3880   30.5500 O   0  0  0  0  0  0  0  0  0  0  0  0
   39.6920   38.5480   30.0650 P   0  0  0  0  0  0  0  0  0  0  0  0
   39.3220   40.3140   32.6170 C   0  0  0  0  0  0  0  0  0  0  0  0
  2  8  1  0
  3  7  2  0
  6  2  1  0
  7  1  1  0
  7  6  1  0
  7  4  1  0
  8  5  1  0
M  END
$$$$

     RDKit          3D

  9  8  0  0  0  0  0  0  0  0999 V2000
   39.8710   43.4480   31.1180 C   0  0  0  0  0  0  0  0  0  0  0  0
   39.2980   41.1970   31.2420 O   0  0  0  0  0  0  0  0  0  0  0  0
   40.0710   42.1070   30.4700 C   0  0  0  0  0  0  0  0  0  0  0  0
   41.5530   41.7240   30.6790 C   0  0  0  0  0  0  0  0  0  0  0  0
   42.1680   41.0270   29.4830 C   0  0  0  0  0  0  0  0  0  0  0  0
   41.8190   41.2160   31.7110 O   0  0  0  0  0  0  0  0  0  0  0  0
   43.1680   40.3180   29.6090 O   0  0  0  0  0  0  0  0  0  0  0  0
   40.3260   44.5600   30.6800 O   0  0  0  0  0  0  0  0  0  0  0  0
   41.7280   41.1710   28.3340 O   0  0  0  0  0  0  0  0  0  0  0  0
  3  4  1  0
  3  1  1  0
  3  2  1  0
  4  6  1  0
  5  7  1  0
  5  4  1  0
  8  1  2  0
  9  5  2  0
M  END
$$$$

     RDKit          3D

 12 13  0  0  0  0  0  0  0  0999 V2000
   34.8170   38.3310   32.0140 C   0  0  0  0  0  0  0  0  0  0  0  0
   40.5160   38.8190   29.8360 C   0  0  0  0  0  0  0  0  0  0  0  0
   37.0350   37.7200   31.3780 C   0  0  0  0  0  0  0  0  0  0  0  0
   34.4170   37.1260   31.1860 C   0  0  0  0  0  0  0  0  0  0  0  0
   37.8790   39.5270   33.7730 N   0  0  0  0  0  0  0  0  0  0  0  0
   37.0680   39.6590   32.6330 C   0  0  0  0  0  0  0  0  0  0  0  0
   40.2700   39.8080   28.6440 C   0  0  0  0  0  0  0  0  0  0  0  0
   39.1680   40.1120   33.2870 C   0  0  0  0  0  0  0  0  0  0  0  0
   36.1380   38.6590   32.1800 C   0  0  0  0  0  0  0  0  0  0  0  0
   37.9770   39.0160   31.5050 C   0  0  0  0  0  0  0  0  0  0  0  0
   40.6000   39.5860   31.2000 C   0  0  0  0  0  0  0  0  0  0  0  0
   39.1750   40.1110   31.6650 C   0  0  0  0  0  0  0  0  0  0  0  0
  1  9  2  3
  2 11  1  0
  3  9  1  0
  4  1  1  0
  6  9  1  0
  6  5  1  0
  7  2  1  0
  8  5  1  0
 10  3  1  0
 10 12  1  0
 10  6  1  0
 12 11  1  0
 12  8  1  0
M  END
$$$$

     RDKit          3D

 15 15  0  0  0  0  0  0  0  0999 V2000
   40.7160   40.4370   31.9240 S   0  0  0  0  0  0  0  0  0  0  0  0
   40.4450   42.8700   33.1010 N   0  0  0  0  0  0  0  0  0  0  0  0
   39.8660   41.5700   33.6230 C   0  0  0  0  0  0  0  0  0  0  0  0
   39.7690   42.0080   35.0130 C   0  0  0  0  0  0  0  0  0  0  0  0
   38.0960   36.8920   33.0110 N   0  0  0  0  0  0  0  0  0  0  0  0
   41.6580   43.1240   32.4750 C   0  0  0  0  0  0  0  0  0  0  0  0
   38.6270   41.9010   35.5190 O   0  0  0  0  0  0  0  0  0  0  0  0
   38.6640   37.2730   31.8840 C   0  0  0  0  0  0  0  0  0  0  0  0
   38.7390   39.3610   33.4540 C   0  0  0  0  0  0  0  0  0  0  0  0
   39.2760   40.5750   33.0620 C   0  0  0  0  0  0  0  0  0  0  0  0
   40.3170   38.8330   31.6240 C   0  0  0  0  0  0  0  0  0  0  0  0
   40.6660   42.7950   35.5260 O   0  0  0  0  0  0  0  0  0  0  0  0
   40.9330   38.3640   30.3510 C   0  0  0  0  0  0  0  0  0  0  0  0
   38.7950   36.6450   30.8070 O   0  0  0  0  0  0  0  0  0  0  0  0
   39.1480   38.5330   32.1850 C   0  0  0  0  0  0  0  0  0  0  0  0
  1 10  1  0
  3  2  1  0
  3  4  1  0
  4  7  2  0
  4 12  1  0
  6  2  1  0
  8  5  1  0
 10  9  1  0
 10  3  1  0
 11 13  1  0
 11  1  1  0
 11 15  1  0
 14  8  2  0
 15  8  1  0
 15  9  1  0
M  END
$$$$

     RDKit          3D

 10  9  0  0  0  0  0  0  0  0999 V2000
   38.0690   34.9900   36.0230 N   0  0  0  0  0  0  0  0  0  0  0  0
   39.9600   36.8430   34.2850 O   0  0  0  0  0  0  0  0  0  0  0  0
   40.1880   41.0180   34.3240 C   0  0  0  0  0  0  0  0  0  0  0  0
   38.4280   36.0090   36.5050 C   0  0  0  0  0  0  0  0  0  0  0  0
   40.0030   39.7230   34.9880 C   0  0  0  0  0  0  0  0  0  0  0  0
   39.8620   42.0990   34.8140 O   0  0  0  0  0  0  0  0  0  0  0  0
   38.7510   38.9040   34.7050 C   0  0  0  0  0  0  0  0  0  0  0  0
   38.9080   37.2300   36.4580 N   0  0  0  0  0  0  0  0  0  0  0  0
   39.2660   37.5800   35.1680 C   0  0  0  0  0  0  0  0  0  0  0  0
   40.7380   40.9850   32.9100 C   0  0  0  0  0  0  0  0  0  0  0  0
  1  4  2  0
  2  9  2  0
  3  6  2  0
  3  5  1  0
  7  5  1  0
  7  9  1  0
  8  4  1  0
  9  8  1  0
 10  3  1  0
M  END
$$$$

     RDKit          3D

 10  9  0  0  0  0  0  0  0  0999 V2000
   39.7300   42.2650   30.0450 C   0  0  0  0  0  0  0  0  0  0  0  0
   39.3630   43.1400   30.9230 O   0  0  0  0  0  0  0  0  0  0  0  0
   42.5860   40.1650   28.3290 C   0  0  0  0  0  0  0  0  0  0  0  0
   39.2120   42.7770   28.8160 O   0  0  0  0  0  0  0  0  0  0  0  0
   41.4890   39.6430   28.2100 O   0  0  0  0  0  0  0  0  0  0  0  0
   38.8750   44.6180   30.7660 C   0  0  0  0  0  0  0  0  0  0  0  0
   41.9450   42.1380   31.2470 C   0  0  0  0  0  0  0  0  0  0  0  0
   42.5450   41.4260   29.0260 C   0  0  0  0  0  0  0  0  0  0  0  0
   41.7350   42.7300   32.4020 C   0  0  0  0  0  0  0  0  0  0  0  0
   41.2640   41.7770   29.9540 C   0  0  0  0  0  0  0  0  0  0  0  0
  1  4  1  0
  1  2  1  0
  3  8  1  0
  5  3  1  0
  6  2  1  0
  7  9  2  0
 10  8  1  0
 10  1  1  0
 10  7  1  0
M  END
$$$$

     RDKit          3D

 11 10  0  0  0  0  0  0  0  0999 V2000
   39.2990   41.7300   29.0740 C   0  0  0  0  0  0  0  0  0  0  0  0
   38.9740   41.7000   32.5370 C   0  0  0  0  0  0  0  0  0  0  0  0
   38.2110   39.6000   32.1300 C   0  0  0  0  0  0  0  0  0  0  0  0
   39.3130   40.7860   30.2200 N   0  0  0  0  0  0  0  0  0  0  0  0
   40.7640   39.4890   28.7190 N   0  0  0  0  0  0  0  0  0  0  0  0
   36.8260   39.1750   32.5860 C   0  0  0  0  0  0  0  0  0  0  0  0
   40.2750   42.8710   28.9860 C   0  0  0  0  0  0  0  0  0  0  0  0
   39.5030   39.4720   29.4930 C   0  0  0  0  0  0  0  0  0  0  0  0
   37.0350   41.6820   30.8590 C   0  0  0  0  0  0  0  0  0  0  0  0
   38.2870   40.8970   31.3190 C   0  0  0  0  0  0  0  0  0  0  0  0
   40.1110   43.8470   30.1410 N   0  0  0  0  0  0  0  0  0  0  0  0
  1  4  1  0
  3  6  1  0
  4 10  1  0
  5  8  1  0
  7  1  1  0
  7 11  1  0
  8  4  1  0
  9 10  1  0
 10  3  1  0
 10  2  1  0
M  END
$$$$

     RDKit          3D

 18 20  0  0  0  0  0  0  0  0999 V2000
   37.3970   37.0880   33.0060 C   0  0  0  0  0  0  0  0  0  0  0  0
   41.1330   39.9110   30.5280 C   0  0  0  0  0  0  0  0  0  0  0  0
   38.5590   42.0780   33.3050 O   0  0  0  0  0  0  0  0  0  0  0  0
   41.7210   38.7610   29.8930 O   0  0  0  0  0  0  0  0  0  0  0  0
   39.5840   41.4250   32.9610 C   0  0  0  0  0  0  0  0  0  0  0  0
   42.0990   40.9260   30.9070 C   0  0  0  0  0  0  0  0  0  0  0  0
   38.4070   39.2920   32.8030 C   0  0  0  0  0  0  0  0  0  0  0  0
   35.2750   35.5950   34.5500 C   0  0  0  0  0  0  0  0  0  0  0  0
   40.5010   39.5660   31.8660 C   0  0  0  0  0  0  0  0  0  0  0  0
   37.1840   39.6610   32.2900 C   0  0  0  0  0  0  0  0  0  0  0  0
   40.7280   42.4340   32.6980 C   0  0  0  0  0  0  0  0  0  0  0  0
   43.3250   40.8900   30.6250 O   0  0  0  0  0  0  0  0  0  0  0  0
   41.5440   42.1590   31.4980 C   0  0  0  0  0  0  0  0  0  0  0  0
   36.1530   36.5140   33.7450 C   0  0  0  0  0  0  0  0  0  0  0  0
   38.3980   37.8760   33.4180 C   0  0  0  0  0  0  0  0  0  0  0  0
   39.5480   40.0690   32.5070 C   0  0  0  0  0  0  0  0  0  0  0  0
   35.9800   37.5390   32.6250 C   0  0  0  0  0  0  0  0  0  0  0  0
   36.0160   39.0190   32.4860 C   0  0  0  0  0  0  0  0  0  0  0  0
  1 15  1  0
  1 14  1  0
  2  4  1  0
  2  6  1  0
  2  9  1  0
  5  3  2  0
  6 13  1  0
  7 15  1  0
  9 16  1  0
 10 18  1  0
 10  7  2  0
 11  5  1  0
 12  6  2  0
 13 11  1  0
 14  8  1  0
 16  7  1  0
 16  5  1  0
 17 18  1  0
 17  1  1  0
 17 14  1  0
M  END
$$$$

     RDKit          3D

 21 25  0  0  0  0  0  0  0  0999 V2000
   37.7220   34.0060   34.1680 C   0  0  0  0  0  0  0  0  0  0  0  0
   38.5890   35.6400   35.8600 C   0  0  0  0  0  0  0  0  0  0  0  0
   37.3880   34.9480   35.3150 C   0  0  0  0  0  0  0  0  0  0  0  0
   40.2500   42.2930   33.6990 C   0  0  0  0  0  0  0  0  0  0  0  0
   38.2980   35.9590   33.5190 N   0  0  0  0  0  0  0  0  0  0  0  0
   39.2180   38.3790   33.4910 C   0  0  0  0  0  0  0  0  0  0  0  0
   38.4980   39.3960   34.0660 C   0  0  0  0  0  0  0  0  0  0  0  0
   42.0280   42.2010   32.1090 C   0  0  0  0  0  0  0  0  0  0  0  0
   37.4090   34.9320   32.9900 C   0  0  0  0  0  0  0  0  0  0  0  0
   41.0050   37.5180   32.2890 O   0  0  0  0  0  0  0  0  0  0  0  0
   40.5360   38.7430   32.8720 C   0  0  0  0  0  0  0  0  0  0  0  0
   39.4840   40.3330   34.1220 C   0  0  0  0  0  0  0  0  0  0  0  0
   39.4580   41.6310   34.7120 C   0  0  0  0  0  0  0  0  0  0  0  0
   40.9430   39.9720   33.7110 C   0  0  0  0  0  0  0  0  0  0  0  0
   37.7990   36.2100   34.8440 O   0  0  0  0  0  0  0  0  0  0  0  0
   39.1900   42.1850   36.0130 O   0  0  0  0  0  0  0  0  0  0  0  0
   42.2160   43.4450   33.0070 C   0  0  0  0  0  0  0  0  0  0  0  0
   38.5910   37.2180   32.8070 C   0  0  0  0  0  0  0  0  0  0  0  0
   41.0760   41.2480   32.8590 C   0  0  0  0  0  0  0  0  0  0  0  0
   42.6320   42.8270   34.3020 C   0  0  0  0  0  0  0  0  0  0  0  0
   41.1770   43.3560   34.0590 C   0  0  0  0  0  0  0  0  0  0  0  0
  3  1  1  0
  3  2  1  0
  4 21  1  0
  4 13  1  0
  6  7  1  0
  7 12  1  0
  8 19  1  0
  8 17  1  0
  9  5  1  0
  9  1  1  0
 10 11  1  0
 11  6  1  0
 11 14  1  0
 12 13  1  0
 13 16  1  0
 14 12  1  0
 15  3  1  0
 15  2  1  0
 17 21  1  0
 17 20  1  0
 18  6  1  0
 18  5  2  3
 19  4  1  0
 19 14  1  0
 21 20  1  0
M  END
$$$$

     RDKit          3D

 20 21  0  0  0  0  0  0  0  0999 V2000
   40.8440   40.3690   34.0200 C   0  0  0  0  0  0  0  0  0  0  0  0
   38.6640   37.7440   35.1050 C   0  0  0  0  0  0  0  0  0  0  0  0
   39.5550   39.7490   31.4960 C   0  0  0  0  0  0  0  0  0  0  0  0
   40.8210   40.2500   31.5480 N   0  0  0  0  0  0  0  0  0  0  0  0
   38.9620   39.6380   30.1940 C   0  0  0  0  0  0  0  0  0  0  0  0
   38.9800   39.1620   32.6840 C   0  0  0  0  0  0  0  0  0  0  0  0
   37.6960   37.5500   34.3010 O   0  0  0  0  0  0  0  0  0  0  0  0
   32.6380   33.7230   32.3650 C   0  0  0  0  0  0  0  0  0  0  0  0
   34.8410   33.7800   33.4520 N   0  0  0  0  0  0  0  0  0  0  0  0
   33.4290   34.0150   33.5970 C   0  0  0  0  0  0  0  0  0  0  0  0
   37.3240   35.3120   35.2450 C   0  0  0  0  0  0  0  0  0  0  0  0
   41.8940   40.3130   35.1300 C   0  0  0  0  0  0  0  0  0  0  0  0
   39.9320   39.1620   33.8330 C   0  0  0  0  0  0  0  0  0  0  0  0
   36.0080   34.6030   35.2420 C   0  0  0  0  0  0  0  0  0  0  0  0
   41.5980   40.6100   32.6990 C   0  0  0  0  0  0  0  0  0  0  0  0
   40.0430   38.0910   34.8490 C   0  0  0  0  0  0  0  0  0  0  0  0
   42.6300   41.1720   32.4630 O   0  0  0  0  0  0  0  0  0  0  0  0
   36.0320   36.2100   33.2950 C   0  0  0  0  0  0  0  0  0  0  0  0
   37.0730   36.4350   34.3010 C   0  0  0  0  0  0  0  0  0  0  0  0
   35.6350   34.8350   33.7550 C   0  0  0  0  0  0  0  0  0  0  0  0
  1 12  1  0
  3  5  1  0
  3  4  1  0
  3  6  1  0
  4 15  1  0
  6 13  1  0
  7  2  1  0
  8 10  1  0
  9 10  1  0
 13  1  1  0
 13 16  1  0
 14 11  1  0
 15  1  1  0
 16  2  1  0
 17 15  2  0
 18 20  1  0
 18 19  1  0
 19  7  1  0
 19 11  1  0
 20  9  1  0
 20 14  1  0
M  END
$$$$

     RDKit          3D

 17 16  0  0  0  0  0  0  0  0999 V2000
   40.7510   39.4800   34.6830 C   0  0  0  0  0  0  0  0  0  0  0  0
   43.7420   42.2870   32.1860 P   0  0  0  0  0  0  0  0  0  0  0  0
   39.4540   38.9640   35.2550 C   0  0  0  0  0  0  0  0  0  0  0  0
   37.7230   34.5560   34.4310 C   0  0  0  0  0  0  0  0  0  0  0  0
   41.1510   40.8610   34.8510 C   0  0  0  0  0  0  0  0  0  0  0  0
   36.5600   36.6240   35.2140 C   0  0  0  0  0  0  0  0  0  0  0  0
   42.8930   42.0060   33.6090 O   0  0  0  0  0  0  0  0  0  0  0  0
   41.3220   38.6870   33.7750 O   0  0  0  0  0  0  0  0  0  0  0  0
   36.5270   35.9560   36.5540 C   0  0  0  0  0  0  0  0  0  0  0  0
   38.9380   36.7110   34.5690 C   0  0  0  0  0  0  0  0  0  0  0  0
   38.6600   38.1020   34.3020 C   0  0  0  0  0  0  0  0  0  0  0  0
   44.5460   40.9840   31.7370 C   0  0  0  0  0  0  0  0  0  0  0  0
   42.9270   42.6840   31.0560 O   0  0  0  0  0  0  0  0  0  0  0  0
   37.6480   35.9920   34.3930 C   0  0  0  0  0  0  0  0  0  0  0  0
   44.7570   43.3480   32.6870 O   0  0  0  0  0  0  0  0  0  0  0  0
   40.7520   41.7840   35.2050 C   0  0  0  0  0  0  0  0  0  0  0  0
   42.6840   41.1620   34.6780 C   0  0  0  0  0  0  0  0  0  0  0  0
  1  8  1  0
  1  5  1  0
  1  3  1  0
  2 12  1  0
  2 15  1  0
  2  7  1  0
  5 16  2  0
  6  9  1  0
  7 17  1  0
 11 10  1  0
 11  3  1  0
 13  2  2  0
 14  4  1  0
 14 10  1  0
 14  6  1  0
 17  5  1  0
M  END
$$$$
