
     RDKit          3D

 16 16  0  0  0  0  0  0  0  0999 V2000
   35.7360   36.7420   30.7940 N   0  0  0  0  0  0  0  0  0  0  0  0
   39.0850   40.4320   27.7770 O   0  0  0  0  0  0  0  0  0  0  0  0
   37.6870   41.1420   29.6480 C   0  0  0  0  0  0  0  0  0  0  0  0
   37.3780   39.9990   30.0080 C   0  0  0  0  0  0  0  0  0  0  0  0
   37.5260   37.7910   29.3630 C   0  0  0  0  0  0  0  0  0  0  0  0
   37.9230   42.6180   29.4430 N   0  0  0  0  0  0  0  0  0  0  0  0
   39.6380   43.6130   28.4510 C   0  0  0  0  0  0  0  0  0  0  0  0
   34.5850   37.0150   31.3130 C   0  0  0  0  0  0  0  0  0  0  0  0
   37.9360   39.0810   29.2670 N   0  0  0  0  0  0  0  0  0  0  0  0
   38.9850   38.1670   27.5640 N   0  0  0  0  0  0  0  0  0  0  0  0
   33.4940   36.8270   30.9050 O   0  0  0  0  0  0  0  0  0  0  0  0
   38.7120   43.4830   28.5860 C   0  0  0  0  0  0  0  0  0  0  0  0
   37.9880   44.7490   28.1260 C   0  0  0  0  0  0  0  0  0  0  0  0
   38.4450   37.0580   28.5540 N   0  0  0  0  0  0  0  0  0  0  0  0
   38.7410   39.3500   28.1960 C   0  0  0  0  0  0  0  0  0  0  0  0
   36.2370   37.3120   29.7970 C   0  0  0  0  0  0  0  0  0  0  0  0
  1  8  1  0
  2 15  2  0
  3  4  1  0
  5 16  1  0
  6  3  1  0
  7 12  2  0
  9  5  1  0
  9  4  1  0
 10 15  1  0
 10 14  1  0
 11  8  2  0
 12  6  1  0
 13 12  1  0
 14  5  1  0
 15  9  1  0
 16  1  1  0
M  END
$$$$

     RDKit          3D

 21 22  0  0  0  0  0  0  0  0999 V2000
   39.2540   39.9360   29.0110 C   0  0  0  0  0  0  0  0  0  0  0  0
   36.4410   37.3220   31.8820 C   0  0  0  0  0  0  0  0  0  0  0  0
   39.9940   39.6010   26.6260 C   0  0  0  0  0  0  0  0  0  0  0  0
   40.2470   33.0330   33.4730 N   0  0  0  0  0  0  0  0  0  0  0  0
   37.8210   41.7110   29.5560 C   0  0  0  0  0  0  0  0  0  0  0  0
   38.9960   34.6010   32.6000 C   0  0  0  0  0  0  0  0  0  0  0  0
   38.4740   40.5990   29.9650 C   0  0  0  0  0  0  0  0  0  0  0  0
   37.3500   41.8730   28.2280 C   0  0  0  0  0  0  0  0  0  0  0  0
   36.0250   35.2100   33.0190 C   0  0  0  0  0  0  0  0  0  0  0  0
   39.7180   34.3360   33.8100 C   0  0  0  0  0  0  0  0  0  0  0  0
   38.1560   39.0720   31.9380 N   0  0  0  0  0  0  0  0  0  0  0  0
   37.0610   36.2930   32.8030 C   0  0  0  0  0  0  0  0  0  0  0  0
   39.6220   32.5420   32.4680 C   0  0  0  0  0  0  0  0  0  0  0  0
   38.5560   40.3330   31.4120 C   0  0  0  0  0  0  0  0  0  0  0  0
   38.8920   33.5310   31.8280 C   0  0  0  0  0  0  0  0  0  0  0  0
   40.0320   31.1970   31.9680 C   0  0  0  0  0  0  0  0  0  0  0  0
   37.5290   38.0420   31.0990 C   0  0  0  0  0  0  0  0  0  0  0  0
   39.3020   40.5470   27.6150 C   0  0  0  0  0  0  0  0  0  0  0  0
   37.4900   36.8860   34.1420 C   0  0  0  0  0  0  0  0  0  0  0  0
   38.3570   35.8590   32.0970 C   0  0  0  0  0  0  0  0  0  0  0  0
   37.9180   41.0600   27.2690 C   0  0  0  0  0  0  0  0  0  0  0  0
  1  7  2  0
  2 12  1  0
  4 10  1  0
  5  7  1  0
  6 20  1  0
  6 10  1  0
  7 14  1  0
  8  5  1  0
 12  9  1  0
 12 19  1  0
 13 16  1  0
 13  4  1  0
 14 11  2  3
 15 13  1  0
 15  6  1  0
 17  2  1  0
 17 11  1  0
 18  3  1  0
 18  1  1  0
 20 12  1  0
 21 18  1  0
 21  8  1  0
M  END
$$$$

     RDKit          3D

 14 14  0  0  0  0  0  0  0  0999 V2000
   38.0460   38.0380   30.7300 C   0  0  0  0  0  0  0  0  0  0  0  0
   37.9470   40.3450   30.6840 C   0  0  0  0  0  0  0  0  0  0  0  0
   36.1190   36.1010   31.2540 S   0  0  0  0  0  0  0  0  0  0  0  0
   38.5800   39.2850   28.6640 O   0  0  0  0  0  0  0  0  0  0  0  0
   38.7610   41.8630   29.0300 C   0  0  0  0  0  0  0  0  0  0  0  0
   38.4870   43.2800   29.1270 O   0  0  0  0  0  0  0  0  0  0  0  0
   38.9340   38.4470   29.5810 C   0  0  0  0  0  0  0  0  0  0  0  0
   37.6510   36.5410   30.4880 C   0  0  0  0  0  0  0  0  0  0  0  0
   37.1130   38.9810   31.0550 C   0  0  0  0  0  0  0  0  0  0  0  0
   40.0410   38.0840   27.6270 O   0  0  0  0  0  0  0  0  0  0  0  0
   39.0340   38.1580   28.3470 C   0  0  0  0  0  0  0  0  0  0  0  0
   36.4370   39.8580   30.5400 O   0  0  0  0  0  0  0  0  0  0  0  0
   39.0420   41.2260   30.2760 C   0  0  0  0  0  0  0  0  0  0  0  0
   38.3190   37.2910   27.7640 O   0  0  0  0  0  0  0  0  0  0  0  0
  1  8  1  0
  1  9  1  0
  4  7  1  0
  5  6  1  0
  5 13  1  0
  7  1  1  0
  8  3  1  0
 10 11  1  0
 11  4  1  0
 11  7  1  0
 12  2  1  0
 12  9  1  0
 13  2  1  0
 14 11  1  0
M  END
$$$$

     RDKit          3D

 11 11  0  0  0  0  0  0  0  0999 V2000
   39.6100   41.9030   25.8950 C   0  0  0  0  0  0  0  0  0  0  0  0
   39.9150   41.7230   27.4260 C   0  0  0  0  0  0  0  0  0  0  0  0
   40.2440   40.5300   27.7850 N   0  0  0  0  0  0  0  0  0  0  0  0
   39.3780   39.0460   29.7690 C   0  0  0  0  0  0  0  0  0  0  0  0
   38.3630   38.9630   28.6700 C   0  0  0  0  0  0  0  0  0  0  0  0
   36.1430   39.4170   28.1580 O   0  0  0  0  0  0  0  0  0  0  0  0
   37.2190   40.0890   28.7380 C   0  0  0  0  0  0  0  0  0  0  0  0
   40.1390   40.1450   29.3390 C   0  0  0  0  0  0  0  0  0  0  0  0
   41.0310   41.7300   25.3870 C   0  0  0  0  0  0  0  0  0  0  0  0
   38.1610   39.9820   27.5740 C   0  0  0  0  0  0  0  0  0  0  0  0
   38.7110   41.1610   25.0760 O   0  0  0  0  0  0  0  0  0  0  0  0
  1  9  1  0
  1  2  1  0
  2  3  2  3
  3  8  1  0
  5  7  1  0
  5  4  1  0
  7  6  1  0
  8  4  1  0
 10  5  1  0
 10  7  1  0
 11  1  1  0
M  END
$$$$

     RDKit          3D

 23 23  0  0  0  0  0  0  0  0999 V2000
   39.2820   37.8360   27.7950 C   0  0  0  0  0  0  0  0  0  0  0  0
   39.4060   39.5170   29.2490 C   0  0  0  0  0  0  0  0  0  0  0  0
   33.8980   35.4050   34.5570 C   0  0  0  0  0  0  0  0  0  0  0  0
   38.5880   38.3350   29.0220 N   0  0  0  0  0  0  0  0  0  0  0  0
   39.9200   45.0340   25.1630 C   0  0  0  0  0  0  0  0  0  0  0  0
   39.2170   39.0590   27.0260 C   0  0  0  0  0  0  0  0  0  0  0  0
   39.8210   42.1540   26.6560 C   0  0  0  0  0  0  0  0  0  0  0  0
   40.7740   43.7720   25.0680 C   0  0  0  0  0  0  0  0  0  0  0  0
   38.1200   37.4570   29.9610 C   0  0  0  0  0  0  0  0  0  0  0  0
   40.3160   41.1340   27.4970 C   0  0  0  0  0  0  0  0  0  0  0  0
   34.3440   35.1240   33.2550 C   0  0  0  0  0  0  0  0  0  0  0  0
   35.8350   35.6660   31.3800 C   0  0  0  0  0  0  0  0  0  0  0  0
   38.7810   36.3780   30.1560 O   0  0  0  0  0  0  0  0  0  0  0  0
   36.2340   36.8660   31.6200 C   0  0  0  0  0  0  0  0  0  0  0  0
   30.9910   35.9170   36.4770 N   0  0  0  0  0  0  0  0  0  0  0  0
   39.2330   40.1700   27.9070 C   0  0  0  0  0  0  0  0  0  0  0  0
   31.7960   36.4240   33.9190 N   0  0  0  0  0  0  0  0  0  0  0  0
   32.4860   35.6040   34.6740 N   0  0  0  0  0  0  0  0  0  0  0  0
   34.5960   35.4770   32.2320 C   0  0  0  0  0  0  0  0  0  0  0  0
   40.0640   42.8080   25.8760 C   0  0  0  0  0  0  0  0  0  0  0  0
   36.9300   37.8600   30.9120 C   0  0  0  0  0  0  0  0  0  0  0  0
   42.1070   44.0690   25.9010 C   0  0  0  0  0  0  0  0  0  0  0  0
   31.9040   35.4400   35.8100 C   0  0  0  0  0  0  0  0  0  0  0  0
  1  4  1  0
  3 18  1  0
  4  2  1  0
  4  9  1  0
  6  1  1  0
  6 16  1  0
  7 10  1  0
  8  5  1  0
  8 20  1  0
  8 22  1  0
  9 13  2  0
  9 21  1  0
 11  3  1  0
 12 14  1  0
 12 19  1  0
 16 10  1  0
 16  2  1  0
 17 18  1  0
 18 23  1  0
 19 11  1  0
 20  7  1  0
 21 14  1  0
 23 15  2  0
M  END
$$$$

     RDKit          3D

 11 11  0  0  0  0  0  0  0  0999 V2000
   39.1940   40.3940   29.0920 C   0  0  0  0  0  0  0  0  0  0  0  0
   36.6550   39.8800   28.0200 O   0  0  0  0  0  0  0  0  0  0  0  0
   37.6520   38.9130   27.6810 C   0  0  0  0  0  0  0  0  0  0  0  0
   38.8390   42.7460   29.1230 O   0  0  0  0  0  0  0  0  0  0  0  0
   37.1130   41.2360   28.2320 C   0  0  0  0  0  0  0  0  0  0  0  0
   38.4950   41.4040   28.1600 C   0  0  0  0  0  0  0  0  0  0  0  0
   36.2950   42.0910   28.5480 O   0  0  0  0  0  0  0  0  0  0  0  0
   38.8380   38.9460   28.6290 C   0  0  0  0  0  0  0  0  0  0  0  0
   38.2420   39.2120   26.2840 C   0  0  0  0  0  0  0  0  0  0  0  0
   36.9920   37.7280   28.1560 O   0  0  0  0  0  0  0  0  0  0  0  0
   40.5860   40.6010   29.5340 O   0  0  0  0  0  0  0  0  0  0  0  0
  1 11  1  0
  2  5  1  0
  3  9  1  0
  3  2  1  0
  3 10  1  0
  3  8  1  0
  5  7  2  0
  6  5  1  0
  6  1  1  0
  6  4  1  0
  8  1  1  0
M  END
$$$$

     RDKit          3D

 17 19  0  0  0  0  0  0  0  0999 V2000
   39.7780   39.0440   28.0730 N   0  0  0  0  0  0  0  0  0  0  0  0
   35.6730   35.9190   32.1310 C   0  0  0  0  0  0  0  0  0  0  0  0
   36.4020   37.7790   31.0810 C   0  0  0  0  0  0  0  0  0  0  0  0
   38.1210   40.9140   30.8650 C   0  0  0  0  0  0  0  0  0  0  0  0
   39.0350   39.5090   29.1360 C   0  0  0  0  0  0  0  0  0  0  0  0
   37.0710   39.9370   30.7960 N   0  0  0  0  0  0  0  0  0  0  0  0
   38.6570   37.3610   28.7400 C   0  0  0  0  0  0  0  0  0  0  0  0
   40.5660   39.9000   27.2120 C   0  0  0  0  0  0  0  0  0  0  0  0
   39.1050   40.8510   29.7020 C   0  0  0  0  0  0  0  0  0  0  0  0
   35.0330   37.8280   31.1820 C   0  0  0  0  0  0  0  0  0  0  0  0
   39.5730   37.7830   27.8160 N   0  0  0  0  0  0  0  0  0  0  0  0
   34.6180   36.7300   31.8820 N   0  0  0  0  0  0  0  0  0  0  0  0
   38.4960   41.7480   28.5540 C   0  0  0  0  0  0  0  0  0  0  0  0
   38.2460   38.4900   29.5480 C   0  0  0  0  0  0  0  0  0  0  0  0
   36.8430   36.5730   31.6840 C   0  0  0  0  0  0  0  0  0  0  0  0
   37.2450   38.7040   30.4890 N   0  0  0  0  0  0  0  0  0  0  0  0
   38.2050   42.3600   31.4150 C   0  0  0  0  0  0  0  0  0  0  0  0
  1  5  1  0
  3 10  2  0
  3 15  1  0
  4 17  1  0
  5 14  2  0
  5  9  1  0
  6  4  1  0
  7 14  1  0
  8  1  1  0
  9 13  1  0
  9  4  1  0
 10 12  1  0
 11  1  1  0
 11  7  2  0
 12  2  1  0
 14 16  1  0
 15  2  2  0
 16  6  1  0
 16  3  1  0
M  END
$$$$

     RDKit          3D

 14 13  0  0  0  0  0  0  0  0999 V2000
   36.6830   37.9570   31.1090 C   0  0  0  0  0  0  0  0  0  0  0  0
   39.6190   38.9830   25.9960 O   0  0  0  0  0  0  0  0  0  0  0  0
   39.3670   40.3190   26.7610 C   0  0  0  0  0  0  0  0  0  0  0  0
   36.4800   39.6520   29.4510 O   0  0  0  0  0  0  0  0  0  0  0  0
   36.1210   38.3220   29.7380 C   0  0  0  0  0  0  0  0  0  0  0  0
   36.1710   36.7280   31.4430 O   0  0  0  0  0  0  0  0  0  0  0  0
   38.4020   39.9700   27.9150 C   0  0  0  0  0  0  0  0  0  0  0  0
   39.0970   38.7010   28.2190 C   0  0  0  0  0  0  0  0  0  0  0  0
   34.9220   38.2530   29.1080 N   0  0  0  0  0  0  0  0  0  0  0  0
   36.0800   40.5090   27.4360 O   0  0  0  0  0  0  0  0  0  0  0  0
   36.8000   40.0600   28.2630 C   0  0  0  0  0  0  0  0  0  0  0  0
   40.3820   41.8740   27.3040 S   0  0  0  0  0  0  0  0  0  0  0  0
   38.6810   40.4840   29.0710 O   0  0  0  0  0  0  0  0  0  0  0  0
   38.7600   37.5550   27.8920 C   0  0  0  0  0  0  0  0  0  0  0  0
  1  6  1  0
  2  3  2  0
  3 12  1  0
  3  7  1  0
  4  5  1  0
  5  9  1  0
  5  1  1  0
  7  8  1  0
  7 11  1  0
  7 13  1  0
 10 11  2  0
 11  4  1  0
 14  8  2  0
M  END
$$$$

     RDKit          3D

 32 33  0  0  0  0  0  0  0  0999 V2000
   33.9360   36.2640   34.1520 C   0  0  0  0  0  0  0  0  0  0  0  0
   35.5790   37.0500   31.9200 C   0  0  0  0  0  0  0  0  0  0  0  0
   32.8450   37.0030   36.3520 C   0  0  0  0  0  0  0  0  0  0  0  0
   41.7410   30.5450   36.5730 O   0  0  0  0  0  0  0  0  0  0  0  0
   34.1530   37.6390   31.9930 C   0  0  0  0  0  0  0  0  0  0  0  0
   38.9970   36.1080   31.1670 C   0  0  0  0  0  0  0  0  0  0  0  0
   39.7270   35.9540   32.3340 C   0  0  0  0  0  0  0  0  0  0  0  0
   39.7610   34.4500   32.7690 C   0  0  0  0  0  0  0  0  0  0  0  0
   37.5810   42.1390   25.4830 C   0  0  0  0  0  0  0  0  0  0  0  0
   37.0090   42.9710   24.3660 C   0  0  0  0  0  0  0  0  0  0  0  0
   37.7880   34.4870   29.7830 C   0  0  0  0  0  0  0  0  0  0  0  0
   38.9920   41.3940   27.3470 C   0  0  0  0  0  0  0  0  0  0  0  0
   41.4780   33.9550   34.6710 C   0  0  0  0  0  0  0  0  0  0  0  0
   31.5770   36.9850   37.1630 C   0  0  0  0  0  0  0  0  0  0  0  0
   33.9870   37.4840   37.1030 O   0  0  0  0  0  0  0  0  0  0  0  0
   38.3910   37.8920   29.6250 C   0  0  0  0  0  0  0  0  0  0  0  0
   38.3420   42.5310   26.4600 N   0  0  0  0  0  0  0  0  0  0  0  0
   41.9630   31.6710   34.0590 N   0  0  0  0  0  0  0  0  0  0  0  0
   37.4960   40.7630   25.6100 N   0  0  0  0  0  0  0  0  0  0  0  0
   38.1970   40.3210   26.6840 C   0  0  0  0  0  0  0  0  0  0  0  0
   40.6940   34.2170   33.6120 C   0  0  0  0  0  0  0  0  0  0  0  0
   41.7840   32.1410   36.4840 C   0  0  0  0  0  0  0  0  0  0  0  0
   37.5920   35.6270   30.8930 C   0  0  0  0  0  0  0  0  0  0  0  0
   38.1820   38.8460   27.1460 C   0  0  0  0  0  0  0  0  0  0  0  0
   36.9370   37.8040   30.0020 C   0  0  0  0  0  0  0  0  0  0  0  0
   36.9750   37.0240   31.3030 C   0  0  0  0  0  0  0  0  0  0  0  0
   33.2930   36.7570   32.8510 C   0  0  0  0  0  0  0  0  0  0  0  0
   33.9920   37.7130   38.5650 C   0  0  0  0  0  0  0  0  0  0  0  0
   39.2430   37.1470   30.4410 O   0  0  0  0  0  0  0  0  0  0  0  0
   41.6620   32.6440   35.2020 C   0  0  0  0  0  0  0  0  0  0  0  0
   38.9970   38.5030   28.3770 C   0  0  0  0  0  0  0  0  0  0  0  0
   33.0330   35.9360   35.3090 C   0  0  0  0  0  0  0  0  0  0  0  0
  1 32  1  0
  2  5  1  0
  3 15  1  0
  3 14  1  0
  5 27  1  0
  6  7  1  0
  7  8  1  0
  8 21  1  0
  9 19  1  0
  9 17  2  0
 10  9  1  0
 13 30  1  0
 15 28  1  0
 16 31  1  0
 16 25  1  0
 16 29  1  0
 17 12  1  0
 19 20  2  0
 20 24  1  0
 20 12  1  0
 21 13  1  0
 22  4  1  0
 23 11  1  0
 23  6  1  0
 23 26  1  0
 24 31  1  0
 25 26  1  0
 26  2  1  0
 27  1  1  0
 29  6  1  0
 30 18  1  0
 30 22  1  0
 32  3  1  0
M  END
$$$$

     RDKit          3D

 18 18  0  0  0  0  0  0  0  0999 V2000
   33.9720   36.7440   31.0730 O   0  0  0  0  0  0  0  0  0  0  0  0
   39.0350   39.7040   27.6970 C   0  0  0  0  0  0  0  0  0  0  0  0
   34.1750   36.5860   32.5740 P   0  0  0  0  0  0  0  0  0  0  0  0
   38.3660   38.8720   31.5880 O   0  0  0  0  0  0  0  0  0  0  0  0
   33.7680   35.2130   33.0470 O   0  0  0  0  0  0  0  0  0  0  0  0
   36.7620   37.4020   30.6880 C   0  0  0  0  0  0  0  0  0  0  0  0
   39.0180   36.4860   33.3120 C   0  0  0  0  0  0  0  0  0  0  0  0
   32.9860   37.1470   33.4290 O   0  0  0  0  0  0  0  0  0  0  0  0
   40.4360   40.0540   27.3780 C   0  0  0  0  0  0  0  0  0  0  0  0
   36.7960   36.5110   31.9200 C   0  0  0  0  0  0  0  0  0  0  0  0
   35.7790   36.7260   32.8470 O   0  0  0  0  0  0  0  0  0  0  0  0
   40.1530   36.9760   33.3150 O   0  0  0  0  0  0  0  0  0  0  0  0
   38.7050   38.5300   28.3290 C   0  0  0  0  0  0  0  0  0  0  0  0
   38.1280   36.6690   32.3350 N   0  0  0  0  0  0  0  0  0  0  0  0
   39.0730   38.1040   29.7140 C   0  0  0  0  0  0  0  0  0  0  0  0
   37.8400   38.2420   30.5680 C   0  0  0  0  0  0  0  0  0  0  0  0
   39.4860   39.2270   30.6570 C   0  0  0  0  0  0  0  0  0  0  0  0
   38.7080   35.6170   34.0880 O   0  0  0  0  0  0  0  0  0  0  0  0
  1  3  2  0
  2 13  1  0
  3 11  1  0
  3  5  1  0
  3  8  1  0
  7 12  2  0
  7 18  1  0
  9  2  1  0
 10  6  1  0
 10 14  1  0
 10 11  1  0
 14  7  1  0
 15 13  1  0
 15 16  1  0
 15 17  1  0
 16  6  1  0
 16  4  1  0
 17  4  1  0
M  END
$$$$

     RDKit          3D

 20 20  0  0  0  0  0  0  0  0999 V2000
   38.4270   40.6600   29.0370 C   0  0  0  0  0  0  0  0  0  0  0  0
   36.0980   41.0920   27.9520 C   0  0  0  0  0  0  0  0  0  0  0  0
   36.8530   36.8400   32.6680 C   0  0  0  0  0  0  0  0  0  0  0  0
   39.1260   41.2360   30.1780 C   0  0  0  0  0  0  0  0  0  0  0  0
   36.0740   35.5790   33.0580 C   0  0  0  0  0  0  0  0  0  0  0  0
   38.4120   39.3350   28.7280 C   0  0  0  0  0  0  0  0  0  0  0  0
   38.2460   34.8330   32.5710 C   0  0  0  0  0  0  0  0  0  0  0  0
   39.6610   40.7120   31.5420 C   0  0  0  0  0  0  0  0  0  0  0  0
   39.4460   34.8220   33.2820 C   0  0  0  0  0  0  0  0  0  0  0  0
   37.3740   36.6970   31.2370 C   0  0  0  0  0  0  0  0  0  0  0  0
   39.5560   38.5780   28.1760 N   0  0  0  0  0  0  0  0  0  0  0  0
   39.4820   42.4010   29.9680 O   0  0  0  0  0  0  0  0  0  0  0  0
   38.2780   35.3800   31.2810 C   0  0  0  0  0  0  0  0  0  0  0  0
   38.2640   37.6400   30.4180 C   0  0  0  0  0  0  0  0  0  0  0  0
   37.6210   43.1020   28.2170 C   0  0  0  0  0  0  0  0  0  0  0  0
   37.5400   41.5350   28.1870 C   0  0  0  0  0  0  0  0  0  0  0  0
   40.0030   42.5450   33.7750 C   0  0  0  0  0  0  0  0  0  0  0  0
   37.7070   38.5070   29.5550 C   0  0  0  0  0  0  0  0  0  0  0  0
   40.3070   41.7940   32.4510 C   0  0  0  0  0  0  0  0  0  0  0  0
   37.0310   34.4140   33.2360 C   0  0  0  0  0  0  0  0  0  0  0  0
  1 16  1  0
  1  4  1  0
  2 16  1  0
  3  5  1  0
  4  8  1  0
  5 20  1  0
  6 11  1  0
  6  1  1  0
  6 18  1  0
  7 20  1  0
  7  9  1  0
  8 19  1  0
 10 14  1  0
 10 13  1  0
 10  3  1  0
 12  4  2  0
 13  7  1  0
 16 15  1  0
 18 14  2  3
 19 17  1  0
M  END
$$$$

     RDKit          3D

 10 11  0  0  0  0  0  0  0  0999 V2000
   35.9360   38.1640   30.5200 C   0  0  0  0  0  0  0  0  0  0  0  0
   37.0320   39.2120   30.2730 C   0  0  0  0  0  0  0  0  0  0  0  0
   38.5750   40.8250   29.9340 C   0  0  0  0  0  0  0  0  0  0  0  0
   38.5200   37.2760   29.8940 C   0  0  0  0  0  0  0  0  0  0  0  0
   38.2850   38.5940   30.0100 C   0  0  0  0  0  0  0  0  0  0  0  0
   36.1900   36.9210   30.4550 N   0  0  0  0  0  0  0  0  0  0  0  0
   34.6950   38.5580   30.6450 O   0  0  0  0  0  0  0  0  0  0  0  0
   37.2960   40.6050   30.2900 C   0  0  0  0  0  0  0  0  0  0  0  0
   37.4460   36.4220   30.1840 C   0  0  0  0  0  0  0  0  0  0  0  0
   39.2210   39.6100   29.8720 N   0  0  0  0  0  0  0  0  0  0  0  0
  1  7  2  0
  2  8  1  0
  2  1  1  0
  3  8  1  0
  4  5  1  0
  4  9  2  0
  5  2  2  0
  6  1  1  0
  9  6  1  0
 10  3  2  0
 10  5  1  0
M  END
$$$$

     RDKit          3D

 19 20  0  0  0  0  0  0  0  0999 V2000
   37.6850   40.5400   28.9650 C   0  0  0  0  0  0  0  0  0  0  0  0
   39.2470   35.6150   33.5200 O   0  0  0  0  0  0  0  0  0  0  0  0
   38.7530   42.6970   29.5000 C   0  0  0  0  0  0  0  0  0  0  0  0
   40.5770   41.3110   29.0170 C   0  0  0  0  0  0  0  0  0  0  0  0
   38.8290   39.6380   29.0180 C   0  0  0  0  0  0  0  0  0  0  0  0
   38.4980   38.2990   29.4710 C   0  0  0  0  0  0  0  0  0  0  0  0
   37.2030   36.6390   32.4150 C   0  0  0  0  0  0  0  0  0  0  0  0
   37.2680   35.2890   34.5890 O   0  0  0  0  0  0  0  0  0  0  0  0
   38.0340   36.2350   33.7330 P   0  0  0  0  0  0  0  0  0  0  0  0
   35.2290   37.4660   31.0620 C   0  0  0  0  0  0  0  0  0  0  0  0
   40.1520   42.4810   28.9020 C   0  0  0  0  0  0  0  0  0  0  0  0
   37.7280   42.0140   28.7360 C   0  0  0  0  0  0  0  0  0  0  0  0
   37.5510   37.9950   30.4880 C   0  0  0  0  0  0  0  0  0  0  0  0
   38.2270   37.4080   31.6240 C   0  0  0  0  0  0  0  0  0  0  0  0
   38.1230   37.4160   34.5950 O   0  0  0  0  0  0  0  0  0  0  0  0
   40.2450   39.9440   28.7650 C   0  0  0  0  0  0  0  0  0  0  0  0
   39.2000   37.3410   29.1100 O   0  0  0  0  0  0  0  0  0  0  0  0
   35.9810   36.2870   31.6510 C   0  0  0  0  0  0  0  0  0  0  0  0
   36.2960   38.3830   30.6150 C   0  0  0  0  0  0  0  0  0  0  0  0
  1  5  2  0
  2  9  2  0
  5  6  1  0
  7  9  1  0
  9  8  1  0
  9 15  1  0
 10 18  1  0
 11  4  1  0
 11  3  1  0
 12  1  1  0
 12  3  1  0
 13  6  1  0
 13 19  1  0
 13 14  1  0
 14  7  1  0
 16  4  1  0
 16  5  1  0
 17  6  2  0
 18  7  1  0
 19 10  1  0
M  END
$$$$

     RDKit          3D

  5  4  0  0  0  0  0  0  0  0999 V2000
   36.5780   40.6960   26.8840 C   0  0  0  0  0  0  0  0  0  0  0  0
   37.0180   38.6200   28.5620 C   0  0  0  0  0  0  0  0  0  0  0  0
   36.7530   35.9300   29.3700 C   0  0  0  0  0  0  0  0  0  0  0  0
   37.9670   39.9190   27.7620 S   0  0  0  0  0  0  0  0  0  0  0  0
   38.1350   37.0480   28.8810 S   0  0  0  0  0  0  0  0  0  0  0  0
  1  4  1  0
  2  5  1  0
  4  2  1  0
  5  3  1  0
M  END
$$$$

     RDKit          3D

 13 13  0  0  0  0  0  0  0  0999 V2000
   37.9500   40.2560   32.0140 O   0  0  0  0  0  0  0  0  0  0  0  0
   39.6490   40.7550   28.7810 C   0  0  0  0  0  0  0  0  0  0  0  0
   34.4510   38.2600   30.0000 C   0  0  0  0  0  0  0  0  0  0  0  0
   38.2170   40.4690   30.8420 C   0  0  0  0  0  0  0  0  0  0  0  0
   39.1200   41.2550   30.0960 C   0  0  0  0  0  0  0  0  0  0  0  0
   35.6280   38.2950   30.7900 C   0  0  0  0  0  0  0  0  0  0  0  0
   39.4570   42.4190   30.4970 O   0  0  0  0  0  0  0  0  0  0  0  0
   38.7490   38.6370   29.8610 C   0  0  0  0  0  0  0  0  0  0  0  0
   37.9550   37.4930   29.5360 O   0  0  0  0  0  0  0  0  0  0  0  0
   37.6390   39.5300   30.0120 O   0  0  0  0  0  0  0  0  0  0  0  0
   40.0080   38.6270   27.7270 O   0  0  0  0  0  0  0  0  0  0  0  0
   39.5960   39.2410   28.7230 C   0  0  0  0  0  0  0  0  0  0  0  0
   36.7620   37.3470   30.3330 C   0  0  0  0  0  0  0  0  0  0  0  0
  2  5  1  0
  3  6  1  0
  4  1  2  0
  5  7  2  0
  5  4  1  0
  8  9  1  0
  8 10  1  0
  9 13  1  0
 10  4  1  0
 11 12  2  0
 12  2  1  0
 12  8  1  0
 13  6  1  0
M  END
$$$$

     RDKit          3D

  6  5  0  0  0  0  0  0  0  0999 V2000
   39.4280   40.2480   28.0340 O   0  0  0  0  0  0  0  0  0  0  0  0
   39.3660   41.9800   26.1450 C   0  0  0  0  0  0  0  0  0  0  0  0
   39.2990   40.6300   26.8900 C   0  0  0  0  0  0  0  0  0  0  0  0
   36.8530   40.8320   27.0400 C   0  0  0  0  0  0  0  0  0  0  0  0
   37.9580   39.9530   26.4770 C   0  0  0  0  0  0  0  0  0  0  0  0
   37.7170   39.5730   25.0190 C   0  0  0  0  0  0  0  0  0  0  0  0
  2  3  1  0
  3  1  2  0
  5  3  1  0
  5  4  1  0
  6  5  1  0
M  END
$$$$

     RDKit          3D

  7  6  0  0  0  0  0  0  0  0999 V2000
   38.8400   40.5230   28.4670 C   0  0  0  0  0  0  0  0  0  0  0  0
   38.7570   39.2610   28.0360 C   0  0  0  0  0  0  0  0  0  0  0  0
   38.4790   35.8650   29.4100 N   0  0  0  0  0  0  0  0  0  0  0  0
   39.5800   41.4430   28.0600 O   0  0  0  0  0  0  0  0  0  0  0  0
   38.0770   38.2220   28.9660 C   0  0  0  0  0  0  0  0  0  0  0  0
   38.6180   40.8430   29.7940 O   0  0  0  0  0  0  0  0  0  0  0  0
   38.8330   36.9630   28.7040 C   0  0  0  0  0  0  0  0  0  0  0  0
  1  6  1  0
  2  1  1  0
  2  5  1  0
  4  1  2  0
  7  5  1  0
  7  3  1  0
M  END
$$$$

     RDKit          3D

 43 48  0  0  0  0  0  0  0  0999 V2000
   40.5570   40.0940   25.4120 C   0  0  0  0  0  0  0  0  0  0  0  0
   36.1140   38.0680   29.7480 N   0  0  0  0  0  0  0  0  0  0  0  0
   29.5330   34.2360   30.1110 C   0  0  0  0  0  0  0  0  0  0  0  0
   38.1000   38.5040   28.4650 C   0  0  0  0  0  0  0  0  0  0  0  0
   29.1730   35.4350   28.1160 C   0  0  0  0  0  0  0  0  0  0  0  0
   40.0050   34.5660   34.1190 C   0  0  0  0  0  0  0  0  0  0  0  0
   36.7510   37.0860   30.4340 C   0  0  0  0  0  0  0  0  0  0  0  0
   36.5840   38.5510   28.6490 C   0  0  0  0  0  0  0  0  0  0  0  0
   39.3720   41.9650   28.3050 N   0  0  0  0  0  0  0  0  0  0  0  0
   40.4790   33.3920   33.2420 C   0  0  0  0  0  0  0  0  0  0  0  0
   33.6820   35.0220   32.3020 C   0  0  0  0  0  0  0  0  0  0  0  0
   30.3560   36.1230   28.3600 C   0  0  0  0  0  0  0  0  0  0  0  0
   43.3270   41.6160   25.0910 C   0  0  0  0  0  0  0  0  0  0  0  0
   41.8630   42.0090   25.4190 C   0  0  0  0  0  0  0  0  0  0  0  0
   34.4190   35.1860   33.2280 C   0  0  0  0  0  0  0  0  0  0  0  0
   41.0950   41.1180   24.4730 C   0  0  0  0  0  0  0  0  0  0  0  0
   31.5120   34.5270   31.3310 N   0  0  0  0  0  0  0  0  0  0  0  0
   39.2890   38.7170   27.6380 C   0  0  0  0  0  0  0  0  0  0  0  0
   39.0710   35.4620   33.2450 C   0  0  0  0  0  0  0  0  0  0  0  0
   31.1270   35.8740   29.5200 C   0  0  0  0  0  0  0  0  0  0  0  0
   37.7250   35.7260   33.2010 N   0  0  0  0  0  0  0  0  0  0  0  0
   35.5180   36.1440   33.6070 C   0  0  0  0  0  0  0  0  0  0  0  0
   35.6200   39.1740   27.6220 C   0  0  0  0  0  0  0  0  0  0  0  0
   30.3420   34.5860   33.5910 C   0  0  0  0  0  0  0  0  0  0  0  0
   36.5780   34.2390   32.3790 O   0  0  0  0  0  0  0  0  0  0  0  0
   38.7380   37.2430   29.1330 C   0  0  0  0  0  0  0  0  0  0  0  0
   36.5370   35.6600   32.5490 C   0  0  0  0  0  0  0  0  0  0  0  0
   31.5640   34.6600   32.7780 C   0  0  0  0  0  0  0  0  0  0  0  0
   30.7850   34.9010   30.3060 C   0  0  0  0  0  0  0  0  0  0  0  0
   39.9830   40.9850   26.4230 C   0  0  0  0  0  0  0  0  0  0  0  0
   39.2820   40.8460   27.7010 C   0  0  0  0  0  0  0  0  0  0  0  0
   39.5100   34.2440   35.5040 C   0  0  0  0  0  0  0  0  0  0  0  0
   38.4800   39.8510   27.9290 N   0  0  0  0  0  0  0  0  0  0  0  0
   40.4320   44.0690   28.1420 C   0  0  0  0  0  0  0  0  0  0  0  0
   36.1450   36.5210   31.4590 O   0  0  0  0  0  0  0  0  0  0  0  0
   30.6560   33.8740   34.9210 C   0  0  0  0  0  0  0  0  0  0  0  0
   32.7850   35.1410   33.3750 N   0  0  0  0  0  0  0  0  0  0  0  0
   40.3210   42.7690   27.7140 C   0  0  0  0  0  0  0  0  0  0  0  0
   30.9700   34.9990   35.9600 C   0  0  0  0  0  0  0  0  0  0  0  0
   39.9910   36.5900   32.7300 C   0  0  0  0  0  0  0  0  0  0  0  0
   38.0150   36.6670   30.1010 C   0  0  0  0  0  0  0  0  0  0  0  0
   28.7440   34.4480   28.9940 C   0  0  0  0  0  0  0  0  0  0  0  0
   40.9590   42.0450   26.6880 N   0  0  0  0  0  0  0  0  0  0  0  0
  2  7  2  0
  3 29  1  0
  4 18  1  0
  4  8  1  0
  4 26  1  0
  5 12  2  0
  5 42  1  0
  6 32  1  0
  7 35  1  0
  8 23  1  0
  8  2  1  0
 10  6  1  0
 11 15  1  0
 11 37  1  0
 12 20  1  0
 14 13  1  0
 14 43  1  0
 15 37  1  0
 15 22  1  0
 16  1  1  0
 16 14  1  0
 17 28  1  0
 19 40  1  0
 19  6  1  0
 20 29  2  0
 21 19  1  0
 24 36  1  0
 26 41  2  0
 27 25  1  0
 27 21  1  0
 27 22  1  0
 28 37  1  0
 28 24  1  0
 29 17  1  0
 30  1  1  0
 30 43  1  0
 30 31  1  0
 31 33  1  0
 31  9  1  0
 33 18  1  0
 33  4  1  0
 35 27  1  0
 36 39  1  0
 38 34  2  0
 38  9  1  0
 41  7  1  0
 42  3  2  0
 43 38  1  0
M  END
$$$$

     RDKit          3D

 12 12  0  0  0  0  0  0  0  0999 V2000
   37.1610   40.8650   26.3840 C   0  0  0  0  0  0  0  0  0  0  0  0
   39.4600   41.2570   28.1280 O   0  0  0  0  0  0  0  0  0  0  0  0
   40.1640   38.7990   28.3950 Cl  0  0  0  0  0  0  0  0  0  0  0  0
   36.5430   41.5420   27.3540 O   0  0  0  0  0  0  0  0  0  0  0  0
   38.8350   40.0160   28.1640 C   0  0  0  0  0  0  0  0  0  0  0  0
   39.0990   42.3190   29.0440 C   0  0  0  0  0  0  0  0  0  0  0  0
   38.6860   38.9970   25.7620 C   0  0  0  0  0  0  0  0  0  0  0  0
   38.2360   39.9100   26.7920 C   0  0  0  0  0  0  0  0  0  0  0  0
   37.0490   40.5760   22.9060 O   0  0  0  0  0  0  0  0  0  0  0  0
   36.8020   41.0540   25.0580 C   0  0  0  0  0  0  0  0  0  0  0  0
   38.2980   39.1740   24.4060 C   0  0  0  0  0  0  0  0  0  0  0  0
   37.4370   40.2520   24.0790 C   0  0  0  0  0  0  0  0  0  0  0  0
  1  8  1  0
  1  4  1  0
  2  5  1  0
  2  6  1  0
  5  3  1  0
  7  8  1  0
  8  5  1  0
  9 12  2  0
 10  1  2  0
 11  7  2  0
 12 11  1  0
 12 10  1  0
M  END
$$$$

     RDKit          3D

 14 15  0  0  0  0  0  0  0  0999 V2000
   37.4090   35.9620   30.7850 C   0  0  0  0  0  0  0  0  0  0  0  0
   34.6040   37.1330   32.4800 O   0  0  0  0  0  0  0  0  0  0  0  0
   39.1850   36.8130   29.6840 O   0  0  0  0  0  0  0  0  0  0  0  0
   35.2210   40.3740   29.7890 C   0  0  0  0  0  0  0  0  0  0  0  0
   34.7560   39.4550   30.6040 N   0  0  0  0  0  0  0  0  0  0  0  0
   36.3690   39.8280   29.3680 C   0  0  0  0  0  0  0  0  0  0  0  0
   36.6950   38.8240   29.9970 C   0  0  0  0  0  0  0  0  0  0  0  0
   38.1620   37.0100   30.0180 C   0  0  0  0  0  0  0  0  0  0  0  0
   37.2380   40.2650   28.2030 C   0  0  0  0  0  0  0  0  0  0  0  0
   36.4980   35.4190   32.9200 O   0  0  0  0  0  0  0  0  0  0  0  0
   35.3560   37.1020   31.4950 C   0  0  0  0  0  0  0  0  0  0  0  0
   36.7260   36.4720   32.0250 C   0  0  0  0  0  0  0  0  0  0  0  0
   37.7870   38.2720   29.6840 N   0  0  0  0  0  0  0  0  0  0  0  0
   35.5350   38.4490   30.7320 C   0  0  0  0  0  0  0  0  0  0  0  0
  1 12  1  0
  3  8  2  0
  4  5  1  0
  5 14  1  0
  6  4  1  0
  6  7  2  0
  8  1  1  0
  9  6  1  0
 11 12  1  0
 11  2  1  0
 12 10  1  0
 13  7  1  0
 13  8  1  0
 14  7  1  0
 14 11  1  0
M  END
$$$$
