
     RDKit          3D

 13 13  0  0  0  0  0  0  0  0999 V2000
   35.6190   36.2130   30.6110 O   0  0  0  0  0  0  0  0  0  0  0  0
   34.8140   35.0410   32.5700 C   0  0  0  0  0  0  0  0  0  0  0  0
   37.8420   33.6810   32.8020 N   0  0  0  0  0  0  0  0  0  0  0  0
   38.3380   35.0360   32.4970 N   0  0  0  0  0  0  0  0  0  0  0  0
   39.3620   35.1070   31.5890 C   0  0  0  0  0  0  0  0  0  0  0  0
   39.9080   33.8950   31.3060 O   0  0  0  0  0  0  0  0  0  0  0  0
   39.7090   35.9360   30.8600 O   0  0  0  0  0  0  0  0  0  0  0  0
   36.0100   35.2980   31.6490 C   0  0  0  0  0  0  0  0  0  0  0  0
   34.5500   33.7400   33.2920 C   0  0  0  0  0  0  0  0  0  0  0  0
   33.5820   35.2600   31.8680 N   0  0  0  0  0  0  0  0  0  0  0  0
   32.6040   35.0460   32.9010 C   0  0  0  0  0  0  0  0  0  0  0  0
   37.2040   35.9650   32.4580 C   0  0  0  0  0  0  0  0  0  0  0  0
   33.0660   33.7490   33.5800 C   0  0  0  0  0  0  0  0  0  0  0  0
  2  8  1  0
  2  9  1  0
  4  3  1  0
  5  4  1  0
  6  5  1  0
  7  5  2  0
  8  1  1  0
  8 12  1  0
  9 13  1  0
 10  2  1  0
 10 11  1  0
 11 13  1  0
 12  4  1  0
M  END
$$$$

     RDKit          3D

 33 34  0  0  0  0  0  0  0  0999 V2000
   41.5180   40.3560   32.0860 O   0  0  0  0  0  0  0  0  0  0  0  0
   37.8290   37.4210   31.7320 C   0  0  0  0  0  0  0  0  0  0  0  0
   38.5240   31.7010   33.1070 C   0  0  0  0  0  0  0  0  0  0  0  0
   37.8140   44.0400   27.9980 C   0  0  0  0  0  0  0  0  0  0  0  0
   35.5700   40.2060   28.1470 C   0  0  0  0  0  0  0  0  0  0  0  0
   39.9710   33.1120   31.8440 N   0  0  0  0  0  0  0  0  0  0  0  0
   37.8630   43.0240   28.8590 C   0  0  0  0  0  0  0  0  0  0  0  0
   38.6650   29.3040   33.8980 C   0  0  0  0  0  0  0  0  0  0  0  0
   38.9880   38.3540   32.0080 C   0  0  0  0  0  0  0  0  0  0  0  0
   36.5850   42.5000   29.3980 C   0  0  0  0  0  0  0  0  0  0  0  0
   40.1000   36.5450   32.8380 C   0  0  0  0  0  0  0  0  0  0  0  0
   37.8270   40.4060   30.0840 C   0  0  0  0  0  0  0  0  0  0  0  0
   39.6090   30.6140   31.0350 C   0  0  0  0  0  0  0  0  0  0  0  0
   38.4440   39.7540   32.4570 C   0  0  0  0  0  0  0  0  0  0  0  0
   40.4500   35.3890   32.9590 C   0  0  0  0  0  0  0  0  0  0  0  0
   40.1450   37.7780   32.8070 C   0  0  0  0  0  0  0  0  0  0  0  0
   36.6830   41.2340   30.1370 C   0  0  0  0  0  0  0  0  0  0  0  0
   39.0860   31.9390   31.7030 C   0  0  0  0  0  0  0  0  0  0  0  0
   35.8460   41.0410   31.3740 C   0  0  0  0  0  0  0  0  0  0  0  0
   42.0860   37.8700   34.4670 C   0  0  0  0  0  0  0  0  0  0  0  0
   39.8100   34.4400   31.8350 C   0  0  0  0  0  0  0  0  0  0  0  0
   39.7100   35.1220   30.7190 O   0  0  0  0  0  0  0  0  0  0  0  0
   42.0020   40.7900   34.2400 C   0  0  0  0  0  0  0  0  0  0  0  0
   36.4030   40.5130   33.7520 C   0  0  0  0  0  0  0  0  0  0  0  0
   36.6670   40.0790   29.2520 C   0  0  0  0  0  0  0  0  0  0  0  0
   41.1630   38.5510   33.5530 C   0  0  0  0  0  0  0  0  0  0  0  0
   37.3120   41.6260   33.3110 C   0  0  0  0  0  0  0  0  0  0  0  0
   39.3560   30.6680   33.8630 C   0  0  0  0  0  0  0  0  0  0  0  0
   38.9420   42.3890   28.9080 O   0  0  0  0  0  0  0  0  0  0  0  0
   36.9860   40.4900   32.4100 C   0  0  0  0  0  0  0  0  0  0  0  0
   38.7870   39.7470   33.8040 O   0  0  0  0  0  0  0  0  0  0  0  0
   41.5990   39.9380   33.2570 C   0  0  0  0  0  0  0  0  0  0  0  0
   38.2720   32.9170   33.8560 N   0  0  0  0  0  0  0  0  0  0  0  0
  1 32  2  0
  3 33  1  0
  3 28  1  0
  4  7  1  0
  7 29  2  0
  7 10  1  0
  9  2  1  0
  9 14  1  0
  9 16  1  0
 11 15  1  0
 12 17  1  0
 14 31  1  0
 16 11  1  0
 16 26  1  0
 17 10  1  0
 17 19  1  0
 18 13  1  0
 18  6  1  0
 18  3  1  0
 19 30  1  0
 21  6  1  0
 21 15  1  0
 22 21  2  0
 25  5  1  0
 25 12  1  0
 25 17  1  0
 26 20  1  0
 27 24  1  0
 28  8  1  0
 30 14  1  0
 30 27  1  0
 30 24  1  0
 32 26  1  0
 32 23  1  0
M  END
$$$$

     RDKit          3D

  8  7  0  0  0  0  0  0  0  0999 V2000
   40.8150   38.3730   30.0290 C   0  0  0  0  0  0  0  0  0  0  0  0
   40.6620   39.9120   32.1560 C   0  0  0  0  0  0  0  0  0  0  0  0
   40.9320   39.1360   28.7690 C   0  0  0  0  0  0  0  0  0  0  0  0
   39.9290   40.2750   30.8960 C   0  0  0  0  0  0  0  0  0  0  0  0
   41.8590   40.6580   32.2560 O   0  0  0  0  0  0  0  0  0  0  0  0
   40.9190   37.0690   29.9960 O   0  0  0  0  0  0  0  0  0  0  0  0
   39.5900   39.0310   30.2110 C   0  0  0  0  0  0  0  0  0  0  0  0
   38.4070   38.6630   29.9330 O   0  0  0  0  0  0  0  0  0  0  0  0
  1  3  1  0
  1  7  1  0
  2  5  1  0
  4  2  1  0
  6  1  1  0
  7  4  1  0
  8  7  2  0
M  END
$$$$

     RDKit          3D

 21 22  0  0  0  0  0  0  0  0999 V2000
   37.6790   33.0320   32.5660 C   0  0  0  0  0  0  0  0  0  0  0  0
   35.7310   34.5680   33.1850 C   0  0  0  0  0  0  0  0  0  0  0  0
   40.9690   40.3000   30.8780 C   0  0  0  0  0  0  0  0  0  0  0  0
   34.0780   36.2140   33.4710 O   0  0  0  0  0  0  0  0  0  0  0  0
   41.0540   38.1680   30.1340 C   0  0  0  0  0  0  0  0  0  0  0  0
   33.1110   34.1050   34.2150 C   0  0  0  0  0  0  0  0  0  0  0  0
   40.3090   38.3340   31.0790 C   0  0  0  0  0  0  0  0  0  0  0  0
   36.4560   33.2040   33.2480 C   0  0  0  0  0  0  0  0  0  0  0  0
   35.8490   32.1100   34.1000 N   0  0  0  0  0  0  0  0  0  0  0  0
   38.7750   36.4850   32.3620 C   0  0  0  0  0  0  0  0  0  0  0  0
   36.5120   35.6520   32.6690 C   0  0  0  0  0  0  0  0  0  0  0  0
   39.2150   37.3880   31.5360 C   0  0  0  0  0  0  0  0  0  0  0  0
   41.6530   39.3300   29.8810 C   0  0  0  0  0  0  0  0  0  0  0  0
   40.4350   39.4360   31.6930 N   0  0  0  0  0  0  0  0  0  0  0  0
   43.1370   39.2660   28.6200 S   0  0  0  0  0  0  0  0  0  0  0  0
   38.4370   34.1050   31.8490 C   0  0  0  0  0  0  0  0  0  0  0  0
   40.1990   41.9400   32.4310 O   0  0  0  0  0  0  0  0  0  0  0  0
   40.4470   41.7900   31.0590 C   0  0  0  0  0  0  0  0  0  0  0  0
   41.1510   42.8760   30.6130 O   0  0  0  0  0  0  0  0  0  0  0  0
   34.3350   34.8380   33.6290 C   0  0  0  0  0  0  0  0  0  0  0  0
   37.7770   35.4820   31.8640 C   0  0  0  0  0  0  0  0  0  0  0  0
  1  8  1  0
  2  8  2  0
  2 20  1  0
  3 18  1  0
  3 14  1  0
  4 20  1  0
  5  7  1  0
  7 12  1  0
  7 14  1  0
  8  9  1  0
 11  2  1  0
 12 10  1  0
 13 15  1  0
 13  5  1  0
 13  3  1  0
 16 21  1  0
 16  1  2  0
 18 17  1  0
 19 18  1  0
 20  6  1  0
 21 10  1  0
 21 11  2  0
M  END
$$$$

     RDKit          3D

 25 25  0  0  0  0  0  0  0  0999 V2000
   41.2010   44.7630   30.3560 O   0  0  0  0  0  0  0  0  0  0  0  0
   41.2540   39.5820   28.9690 C   0  0  0  0  0  0  0  0  0  0  0  0
   34.7350   34.1480   32.4790 C   0  0  0  0  0  0  0  0  0  0  0  0
   41.5160   40.9890   28.9440 O   0  0  0  0  0  0  0  0  0  0  0  0
   40.3640   43.1930   29.0330 C   0  0  0  0  0  0  0  0  0  0  0  0
   40.3530   38.8790   30.1350 C   0  0  0  0  0  0  0  0  0  0  0  0
   43.4040   45.0410   27.4380 C   0  0  0  0  0  0  0  0  0  0  0  0
   39.6710   42.4540   29.9750 N   0  0  0  0  0  0  0  0  0  0  0  0
   35.8170   35.8590   30.9650 C   0  0  0  0  0  0  0  0  0  0  0  0
   42.4010   41.6410   27.9890 C   0  0  0  0  0  0  0  0  0  0  0  0
   35.8180   37.3250   30.6820 C   0  0  0  0  0  0  0  0  0  0  0  0
   43.1120   43.0110   27.9070 C   0  0  0  0  0  0  0  0  0  0  0  0
   39.5540   37.5360   30.5760 C   0  0  0  0  0  0  0  0  0  0  0  0
   39.3330   39.9360   30.1940 C   0  0  0  0  0  0  0  0  0  0  0  0
   43.5890   40.7280   27.5340 C   0  0  0  0  0  0  0  0  0  0  0  0
   37.6200   40.6060   29.1720 C   0  0  0  0  0  0  0  0  0  0  0  0
   42.6390   44.3560   28.5700 C   0  0  0  0  0  0  0  0  0  0  0  0
   36.8670   38.0860   31.3210 C   0  0  0  0  0  0  0  0  0  0  0  0
   35.2150   36.3980   33.3510 C   0  0  0  0  0  0  0  0  0  0  0  0
   41.4750   44.0370   29.4720 C   0  0  0  0  0  0  0  0  0  0  0  0
   38.2790   37.4520   31.4020 C   0  0  0  0  0  0  0  0  0  0  0  0
   35.3530   35.4220   32.2840 C   0  0  0  0  0  0  0  0  0  0  0  0
   34.3750   33.7910   33.0160 O   0  0  0  0  0  0  0  0  0  0  0  0
   38.0440   39.7780   30.2600 O   0  0  0  0  0  0  0  0  0  0  0  0
   39.7380   41.2810   30.3630 C   0  0  0  0  0  0  0  0  0  0  0  0
  2  6  1  0
  3 23  2  0
  4  2  1  0
  5 20  1  0
  5  8  1  0
  6 14  1  0
  6 13  1  0
  8 25  1  0
  9 22  1  0
 10 15  1  0
 10  4  1  0
 11  9  1  0
 11 18  1  0
 12 10  1  0
 12 17  1  0
 13 21  1  0
 14 24  1  0
 14 25  1  0
 16 24  1  0
 17  7  1  0
 17 20  1  0
 18 21  1  0
 20  1  2  0
 22  3  1  0
 22 19  1  0
M  END
$$$$

     RDKit          3D

 19 21  0  0  0  0  0  0  0  0999 V2000
   36.5660   36.2830   32.1080 N   0  0  0  0  0  0  0  0  0  0  0  0
   33.9330   39.8560   28.2100 C   0  0  0  0  0  0  0  0  0  0  0  0
   36.6070   33.5140   35.1190 C   0  0  0  0  0  0  0  0  0  0  0  0
   37.7020   35.7970   32.2120 C   0  0  0  0  0  0  0  0  0  0  0  0
   36.9710   32.0470   33.3610 C   0  0  0  0  0  0  0  0  0  0  0  0
   35.7500   38.6530   29.8810 C   0  0  0  0  0  0  0  0  0  0  0  0
   36.9400   37.8320   30.7820 C   0  0  0  0  0  0  0  0  0  0  0  0
   33.5630   39.4080   29.5090 C   0  0  0  0  0  0  0  0  0  0  0  0
   36.5620   37.4460   31.7000 N   0  0  0  0  0  0  0  0  0  0  0  0
   36.1210   38.9590   28.5830 C   0  0  0  0  0  0  0  0  0  0  0  0
   34.5530   38.9760   30.3680 C   0  0  0  0  0  0  0  0  0  0  0  0
   38.6270   36.5660   31.5230 N   0  0  0  0  0  0  0  0  0  0  0  0
   35.2800   39.6570   27.7460 C   0  0  0  0  0  0  0  0  0  0  0  0
   36.7760   34.6440   34.3480 C   0  0  0  0  0  0  0  0  0  0  0  0
   37.2300   34.4210   33.0650 C   0  0  0  0  0  0  0  0  0  0  0  0
   37.3360   33.1200   32.5840 C   0  0  0  0  0  0  0  0  0  0  0  0
   38.0550   32.7080   31.0200 Cl  0  0  0  0  0  0  0  0  0  0  0  0
   36.4630   32.2520   34.6340 C   0  0  0  0  0  0  0  0  0  0  0  0
   38.2920   37.5140   30.7380 C   0  0  0  0  0  0  0  0  0  0  0  0
  1  4  2  0
  2  8  1  0
  4 15  1  0
  5 18  2  0
  6 11  1  0
  7  6  1  0
  7  9  1  0
  8 11  2  0
  9  1  1  0
 10  6  2  0
 12  4  1  0
 13  2  2  0
 13 10  1  0
 14  3  2  0
 15 14  1  0
 16 15  2  0
 16  5  1  0
 17 16  1  0
 18  3  1  0
 19  7  1  0
 19 12  1  0
M  END
$$$$

     RDKit          3D

 10 10  0  0  0  0  0  0  0  0999 V2000
   39.5420   40.1440   31.0360 N   0  0  0  0  0  0  0  0  0  0  0  0
   38.9250   41.8070   29.1460 C   0  0  0  0  0  0  0  0  0  0  0  0
   40.2450   41.0940   29.7980 S   0  0  0  0  0  0  0  0  0  0  0  0
   41.5050   38.7020   29.0840 C   0  0  0  0  0  0  0  0  0  0  0  0
   40.2740   40.4270   27.3640 S   0  0  0  0  0  0  0  0  0  0  0  0
   39.4870   41.8510   27.7450 C   0  0  0  0  0  0  0  0  0  0  0  0
   41.7680   38.3890   30.3170 O   0  0  0  0  0  0  0  0  0  0  0  0
   41.9620   38.0040   28.3640 O   0  0  0  0  0  0  0  0  0  0  0  0
   40.5460   39.7790   28.7930 C   0  0  0  0  0  0  0  0  0  0  0  0
   41.5220   41.8090   30.3300 C   0  0  0  0  0  0  0  0  0  0  0  0
  2  3  1  0
  3 10  1  0
  3  1  1  0
  4  7  1  0
  5  6  1  0
  5  9  1  0
  6  2  1  0
  8  4  2  0
  9  4  1  0
  9  3  1  0
M  END
$$$$

     RDKit          3D

 22 23  0  0  0  0  0  0  0  0999 V2000
   39.8110   38.4340   31.5330 C   0  0  0  0  0  0  0  0  0  0  0  0
   36.0310   33.4160   31.8310 N   0  0  0  0  0  0  0  0  0  0  0  0
   40.6460   37.3760   31.1090 C   0  0  0  0  0  0  0  0  0  0  0  0
   42.0980   38.9610   29.9770 C   0  0  0  0  0  0  0  0  0  0  0  0
   39.5930   40.7660   31.7010 O   0  0  0  0  0  0  0  0  0  0  0  0
   43.3050   39.2080   29.0860 C   0  0  0  0  0  0  0  0  0  0  0  0
   32.6690   36.2270   32.6420 O   0  0  0  0  0  0  0  0  0  0  0  0
   34.8700   32.9160   32.4170 C   0  0  0  0  0  0  0  0  0  0  0  0
   38.0340   36.7410   32.4140 C   0  0  0  0  0  0  0  0  0  0  0  0
   38.4790   38.0910   32.3740 C   0  0  0  0  0  0  0  0  0  0  0  0
   37.7890   35.4420   31.5610 S   0  0  0  0  0  0  0  0  0  0  0  0
   35.3500   35.1980   32.8320 N   0  0  0  0  0  0  0  0  0  0  0  0
   33.5710   30.7380   31.5390 O   0  0  0  0  0  0  0  0  0  0  0  0
   33.0470   34.9430   32.1460 C   0  0  0  0  0  0  0  0  0  0  0  0
   34.0620   31.4430   32.7040 P   0  0  0  0  0  0  0  0  0  0  0  0
   41.7580   37.6100   30.2410 C   0  0  0  0  0  0  0  0  0  0  0  0
   36.3420   34.6750   32.1410 C   0  0  0  0  0  0  0  0  0  0  0  0
   35.5630   30.5000   32.9230 O   0  0  0  0  0  0  0  0  0  0  0  0
   41.4070   40.0000   30.5330 N   0  0  0  0  0  0  0  0  0  0  0  0
   34.2250   34.2480   32.8720 C   0  0  0  0  0  0  0  0  0  0  0  0
   40.2360   39.7880   31.2370 C   0  0  0  0  0  0  0  0  0  0  0  0
   33.4120   31.2920   33.8890 O   0  0  0  0  0  0  0  0  0  0  0  0
  1 10  1  0
  2 17  2  0
  2  8  1  0
  3  1  2  0
  4 16  1  0
  4 19  2  0
  6  4  1  0
  8 15  1  0
  8 20  1  0
 10  9  1  0
 11 17  1  0
 11  9  1  0
 12 20  1  0
 13 15  2  0
 14  7  1  0
 15 18  1  0
 15 22  1  0
 16  3  1  0
 17 12  1  0
 19 21  1  0
 20 14  1  0
 21  1  1  0
 21  5  2  0
M  END
$$$$

     RDKit          3D

 10 10  0  0  0  0  0  0  0  0999 V2000
   40.0690   40.3700   27.8360 C   0  0  0  0  0  0  0  0  0  0  0  0
   41.6360   39.0210   29.1140 C   0  0  0  0  0  0  0  0  0  0  0  0
   40.1080   40.5980   30.2470 C   0  0  0  0  0  0  0  0  0  0  0  0
   41.5780   37.6550   28.6000 O   0  0  0  0  0  0  0  0  0  0  0  0
   40.8320   38.4670   31.3280 O   0  0  0  0  0  0  0  0  0  0  0  0
   41.4690   39.8860   27.9960 N   0  0  0  0  0  0  0  0  0  0  0  0
   40.3460   41.0660   26.2090 S   0  0  0  0  0  0  0  0  0  0  0  0
   40.4510   39.1120   30.0940 C   0  0  0  0  0  0  0  0  0  0  0  0
   40.9860   41.2430   31.1730 O   0  0  0  0  0  0  0  0  0  0  0  0
   40.0560   41.4150   28.9640 C   0  0  0  0  0  0  0  0  0  0  0  0
  1  7  1  0
  1  6  1  0
  1 10  1  0
  2  4  1  0
  2  8  1  0
  3  9  1  0
  6  2  1  0
  8  3  1  0
  8  5  1  0
 10  3  1  0
M  END
$$$$

     RDKit          3D

 14 15  0  0  0  0  0  0  0  0999 V2000
   36.8200   35.4120   32.4080 N   0  0  0  0  0  0  0  0  0  0  0  0
   41.5010   37.3790   29.8490 C   0  0  0  0  0  0  0  0  0  0  0  0
   36.2970   36.5730   31.8870 C   0  0  0  0  0  0  0  0  0  0  0  0
   36.0470   34.6870   33.5120 C   0  0  0  0  0  0  0  0  0  0  0  0
   38.1020   35.2960   32.4990 C   0  0  0  0  0  0  0  0  0  0  0  0
   36.0650   35.2710   31.1770 C   0  0  0  0  0  0  0  0  0  0  0  0
   39.6690   39.5850   30.5910 O   0  0  0  0  0  0  0  0  0  0  0  0
   40.0900   38.8610   31.5190 C   0  0  0  0  0  0  0  0  0  0  0  0
   40.7650   37.5550   31.1630 C   0  0  0  0  0  0  0  0  0  0  0  0
   42.3400   39.6530   30.1840 O   0  0  0  0  0  0  0  0  0  0  0  0
   37.5900   37.3450   31.5170 C   0  0  0  0  0  0  0  0  0  0  0  0
   38.7540   36.5780   32.1720 C   0  0  0  0  0  0  0  0  0  0  0  0
   42.2350   38.5200   29.3570 O   0  0  0  0  0  0  0  0  0  0  0  0
   39.9250   36.3730   31.2600 C   0  0  0  0  0  0  0  0  0  0  0  0
  1  5  1  0
  1  4  1  0
  3  6  1  0
  3  1  1  0
  6  1  1  0
  7  8  2  0
  9  2  1  0
  9 14  1  0
  9  8  1  0
 11  3  1  0
 11 12  1  0
 12 14  1  0
 12  5  1  0
 13  2  1  0
 13 10  1  0
M  END
$$$$

     RDKit          3D

 12 13  0  0  0  0  0  0  0  0999 V2000
   35.3300   35.8880   32.7380 C   0  0  0  0  0  0  0  0  0  0  0  0
   39.0650   38.5080   32.1870 C   0  0  0  0  0  0  0  0  0  0  0  0
   38.7990   36.0540   31.8180 C   0  0  0  0  0  0  0  0  0  0  0  0
   37.0190   34.3460   33.2830 C   0  0  0  0  0  0  0  0  0  0  0  0
   39.9260   36.3030   31.6920 N   0  0  0  0  0  0  0  0  0  0  0  0
   37.7090   36.4380   32.3320 N   0  0  0  0  0  0  0  0  0  0  0  0
   37.6580   37.9330   32.3840 C   0  0  0  0  0  0  0  0  0  0  0  0
   40.2940   37.5710   32.1600 C   0  0  0  0  0  0  0  0  0  0  0  0
   36.6980   35.5950   32.7770 C   0  0  0  0  0  0  0  0  0  0  0  0
   36.0720   33.3520   33.6060 C   0  0  0  0  0  0  0  0  0  0  0  0
   34.4240   34.9350   33.1720 C   0  0  0  0  0  0  0  0  0  0  0  0
   34.7060   33.6730   33.5570 C   0  0  0  0  0  0  0  0  0  0  0  0
  1  9  2  0
  1 11  1  0
  2  7  1  0
  3  6  1  0
  4 10  2  0
  5  3  1  0
  5  8  1  0
  6  7  1  0
  6  9  1  0
  8  2  1  0
  9  4  1  0
 11 12  2  0
 12 10  1  0
M  END
$$$$

     RDKit          3D

 14 16  0  0  0  0  0  0  0  0999 V2000
   36.6090   34.0030   32.1950 O   0  0  0  0  0  0  0  0  0  0  0  0
   37.2570   36.7990   31.6070 N   0  0  0  0  0  0  0  0  0  0  0  0
   34.5350   34.7510   33.1210 C   0  0  0  0  0  0  0  0  0  0  0  0
   39.9680   36.6350   32.2710 C   0  0  0  0  0  0  0  0  0  0  0  0
   36.0370   35.1060   32.9160 C   0  0  0  0  0  0  0  0  0  0  0  0
   39.5500   37.2340   30.9730 C   0  0  0  0  0  0  0  0  0  0  0  0
   37.2820   38.0110   30.7600 C   0  0  0  0  0  0  0  0  0  0  0  0
   38.7700   38.3700   30.5020 C   0  0  0  0  0  0  0  0  0  0  0  0
   33.8660   35.5030   31.8780 C   0  0  0  0  0  0  0  0  0  0  0  0
   31.6670   35.5860   32.7140 O   0  0  0  0  0  0  0  0  0  0  0  0
   36.0270   36.3630   31.9790 C   0  0  0  0  0  0  0  0  0  0  0  0
   34.8740   36.5720   31.4230 C   0  0  0  0  0  0  0  0  0  0  0  0
   32.4880   36.0080   31.6490 C   0  0  0  0  0  0  0  0  0  0  0  0
   38.6180   36.4090   31.8470 C   0  0  0  0  0  0  0  0  0  0  0  0
  2  7  1  0
  2 14  1  0
  2 11  1  0
  5  1  1  0
  5  3  1  0
  6  8  1  0
  6 14  1  0
  6  4  1  0
  8  7  1  0
  9 13  1  0
  9  3  1  0
 11 12  1  0
 11  5  1  0
 12  9  1  0
 13 10  1  0
 14  4  1  0
M  END
$$$$

     RDKit          3D

 13 13  0  0  0  0  0  0  0  0999 V2000
   41.1320   37.6700   31.2530 C   0  0  0  0  0  0  0  0  0  0  0  0
   37.9730   35.9980   31.2540 N   0  0  0  0  0  0  0  0  0  0  0  0
   38.4330   38.3060   31.7370 C   0  0  0  0  0  0  0  0  0  0  0  0
   36.9510   33.8600   32.0280 C   0  0  0  0  0  0  0  0  0  0  0  0
   39.4120   39.2500   32.0170 C   0  0  0  0  0  0  0  0  0  0  0  0
   38.8470   37.0330   31.3570 C   0  0  0  0  0  0  0  0  0  0  0  0
   41.3190   40.9530   32.4790 O   0  0  0  0  0  0  0  0  0  0  0  0
   36.7610   35.9050   33.2050 O   0  0  0  0  0  0  0  0  0  0  0  0
   42.7920   37.2930   30.7150 Cl  0  0  0  0  0  0  0  0  0  0  0  0
   37.2560   35.3330   32.2290 C   0  0  0  0  0  0  0  0  0  0  0  0
   40.7550   38.9040   31.8770 C   0  0  0  0  0  0  0  0  0  0  0  0
   40.1410   36.6740   31.0820 C   0  0  0  0  0  0  0  0  0  0  0  0
   41.8640   39.6930   32.5370 C   0  0  0  0  0  0  0  0  0  0  0  0
  1 11  1  0
  2  6  1  0
  2 10  1  0
  3  5  1  0
  4 10  1  0
  6  3  2  0
  7 13  1  0
  9  1  1  0
 10  8  2  0
 11  5  2  0
 11 13  1  0
 12  1  2  0
 12  6  1  0
M  END
$$$$

     RDKit          3D

 24 25  0  0  0  0  0  0  0  0999 V2000
   35.2960   34.7940   32.1550 N   0  0  0  0  0  0  0  0  0  0  0  0
   37.1480   35.9780   32.3270 C   0  0  0  0  0  0  0  0  0  0  0  0
   40.2490   37.3580   31.3600 C   0  0  0  0  0  0  0  0  0  0  0  0
   37.7890   38.0920   31.6660 O   0  0  0  0  0  0  0  0  0  0  0  0
   35.9940   35.8650   31.7270 C   0  0  0  0  0  0  0  0  0  0  0  0
   34.8470   33.2650   34.0420 C   0  0  0  0  0  0  0  0  0  0  0  0
   37.7560   30.8990   35.5080 N   0  0  0  0  0  0  0  0  0  0  0  0
   40.7870   39.4690   29.6930 C   0  0  0  0  0  0  0  0  0  0  0  0
   33.4480   33.4040   33.6270 N   0  0  0  0  0  0  0  0  0  0  0  0
   35.6920   29.8250   35.7290 C   0  0  0  0  0  0  0  0  0  0  0  0
   35.6680   34.2060   33.2100 C   0  0  0  0  0  0  0  0  0  0  0  0
   35.7190   32.2460   36.2320 C   0  0  0  0  0  0  0  0  0  0  0  0
   38.1440   36.9210   31.9330 C   0  0  0  0  0  0  0  0  0  0  0  0
   40.9550   40.4980   28.8970 O   0  0  0  0  0  0  0  0  0  0  0  0
   38.1010   30.6010   36.9070 C   0  0  0  0  0  0  0  0  0  0  0  0
   39.3950   36.5490   31.7960 N   0  0  0  0  0  0  0  0  0  0  0  0
   35.1770   33.5100   35.5170 C   0  0  0  0  0  0  0  0  0  0  0  0
   40.6850   40.5360   32.1650 O   0  0  0  0  0  0  0  0  0  0  0  0
   40.3650   38.5580   31.9010 O   0  0  0  0  0  0  0  0  0  0  0  0
   37.3580   34.6160   33.3920 S   0  0  0  0  0  0  0  0  0  0  0  0
   40.9330   37.1810   30.1790 O   0  0  0  0  0  0  0  0  0  0  0  0
   41.6880   38.2070   29.4690 C   0  0  0  0  0  0  0  0  0  0  0  0
   36.3510   31.1740   35.2730 C   0  0  0  0  0  0  0  0  0  0  0  0
   40.6460   39.6840   31.1570 C   0  0  0  0  0  0  0  0  0  0  0  0
  1 11  1  0
  2 13  1  0
  2 20  1  0
  3 16  1  0
  3 19  1  0
  4 13  2  0
  5  1  1  0
  5  2  1  0
  6  9  1  0
  6 17  1  0
  7 15  1  0
  8 14  1  0
  8 24  1  0
 11 20  1  0
 11  6  1  0
 16 13  1  0
 17 12  1  0
 21  3  1  0
 22  8  1  0
 22 21  1  0
 23  7  1  0
 23 10  1  0
 23 12  1  0
 24 19  1  0
 24 18  2  0
M  END
$$$$

     RDKit          3D

 37 41  0  0  0  0  0  0  0  0999 V2000
   41.7610   43.2150   30.1220 C   0  0  0  0  0  0  0  0  0  0  0  0
   39.4210   43.6300   30.9400 C   0  0  0  0  0  0  0  0  0  0  0  0
   37.7490   30.6800   32.1820 O   0  0  0  0  0  0  0  0  0  0  0  0
   41.6790   42.0600   31.0620 C   0  0  0  0  0  0  0  0  0  0  0  0
   39.2940   38.5600   31.6030 C   0  0  0  0  0  0  0  0  0  0  0  0
   39.8910   35.9260   31.5470 C   0  0  0  0  0  0  0  0  0  0  0  0
   34.7820   29.3560   36.0290 C   0  0  0  0  0  0  0  0  0  0  0  0
   35.1100   31.0410   33.9960 C   0  0  0  0  0  0  0  0  0  0  0  0
   34.1520   33.1210   33.4860 C   0  0  0  0  0  0  0  0  0  0  0  0
   35.6550   31.4960   32.8020 N   0  0  0  0  0  0  0  0  0  0  0  0
   31.3000   33.0470   36.0470 C   0  0  0  0  0  0  0  0  0  0  0  0
   40.7260   44.0280   30.0990 C   0  0  0  0  0  0  0  0  0  0  0  0
   38.9050   33.1530   31.5180 C   0  0  0  0  0  0  0  0  0  0  0  0
   30.9200   32.6180   34.1360 C   0  0  0  0  0  0  0  0  0  0  0  0
   39.2780   38.4080   33.0160 O   0  0  0  0  0  0  0  0  0  0  0  0
   33.0360   31.8320   35.1180 O   0  0  0  0  0  0  0  0  0  0  0  0
   31.9060   32.4880   35.1310 N   0  0  0  0  0  0  0  0  0  0  0  0
   38.1130   34.0860   32.3290 C   0  0  0  0  0  0  0  0  0  0  0  0
   40.4250   46.3880   29.7020 O   0  0  0  0  0  0  0  0  0  0  0  0
   42.5550   41.2400   30.4880 O   0  0  0  0  0  0  0  0  0  0  0  0
   39.4200   42.3360   31.8390 C   0  0  0  0  0  0  0  0  0  0  0  0
   41.7660   45.3210   28.3970 O   0  0  0  0  0  0  0  0  0  0  0  0
   40.3540   39.7140   31.4390 C   0  0  0  0  0  0  0  0  0  0  0  0
   41.7000   39.1060   31.1040 C   0  0  0  0  0  0  0  0  0  0  0  0
   39.9600   37.3510   30.9220 C   0  0  0  0  0  0  0  0  0  0  0  0
   35.5090   30.1000   34.9640 N   0  0  0  0  0  0  0  0  0  0  0  0
   42.9930   40.5100   32.6180 C   0  0  0  0  0  0  0  0  0  0  0  0
   34.7580   32.4940   32.2630 C   0  0  0  0  0  0  0  0  0  0  0  0
   37.0130   31.6520   32.3210 C   0  0  0  0  0  0  0  0  0  0  0  0
   34.1890   32.0000   34.3740 C   0  0  0  0  0  0  0  0  0  0  0  0
   36.4170   29.1450   34.3810 C   0  0  0  0  0  0  0  0  0  0  0  0
   41.4200   37.6750   30.7560 N   0  0  0  0  0  0  0  0  0  0  0  0
   40.8830   45.2810   29.2370 C   0  0  0  0  0  0  0  0  0  0  0  0
   42.8260   40.0190   30.8370 C   0  0  0  0  0  0  0  0  0  0  0  0
   37.4300   32.9120   31.5360 C   0  0  0  0  0  0  0  0  0  0  0  0
   38.4290   35.6070   31.9570 C   0  0  0  0  0  0  0  0  0  0  0  0
   40.3460   41.2430   31.1630 C   0  0  0  0  0  0  0  0  0  0  0  0
  2 21  1  0
  3 29  2  0
  4  1  1  0
  4 37  1  0
  5 15  1  0
  6 36  1  0
  8 30  1  0
  8 26  1  0
  9 30  1  0
 10  8  1  0
 12  1  2  0
 12  2  1  0
 13 35  1  0
 13 18  1  0
 14 17  1  0
 16 17  1  0
 17 11  1  0
 18 36  1  0
 20 34  1  0
 20  4  1  0
 22 33  2  0
 23  5  1  0
 24 23  1  0
 25  6  1  0
 25  5  1  0
 26  7  1  0
 28 10  1  0
 28  9  1  0
 29 10  1  0
 30 16  1  0
 31 26  1  0
 32 25  1  0
 32 24  1  0
 33 19  1  0
 33 12  1  0
 34 24  1  0
 34 27  1  0
 35 29  1  0
 35 18  1  0
 37 23  1  0
 37 21  1  0
M  END
$$$$

     RDKit          3D

  9  9  0  0  0  0  0  0  0  0999 V2000
   38.1110   36.0390   31.6590 C   0  0  0  0  0  0  0  0  0  0  0  0
   38.2160   38.7720   31.6470 Br  0  0  0  0  0  0  0  0  0  0  0  0
   36.2030   34.6390   32.0980 C   0  0  0  0  0  0  0  0  0  0  0  0
   39.3960   36.1390   31.3480 O   0  0  0  0  0  0  0  0  0  0  0  0
   35.3950   35.7250   31.9780 C   0  0  0  0  0  0  0  0  0  0  0  0
   37.2730   37.1620   31.6710 C   0  0  0  0  0  0  0  0  0  0  0  0
   37.5750   34.8080   32.0030 C   0  0  0  0  0  0  0  0  0  0  0  0
   35.9760   37.0830   31.6790 C   0  0  0  0  0  0  0  0  0  0  0  0
   34.8850   38.0520   31.5980 C   0  0  0  0  0  0  0  0  0  0  0  0
  1  6  2  0
  1  7  1  0
  2  6  1  0
  4  1  1  0
  5  3  1  0
  6  8  1  0
  7  3  2  0
  8  5  2  0
  9  8  1  0
M  END
$$$$

     RDKit          3D

 10  9  0  0  0  0  0  0  0  0999 V2000
   40.1430   35.6480   30.9410 C   0  0  0  0  0  0  0  0  0  0  0  0
   40.0900   36.9040   30.0840 C   0  0  0  0  0  0  0  0  0  0  0  0
   39.7390   40.3410   30.0370 C   0  0  0  0  0  0  0  0  0  0  0  0
   38.5230   34.2180   32.0510 N   0  0  0  0  0  0  0  0  0  0  0  0
   41.6960   38.3820   30.1480 N   0  0  0  0  0  0  0  0  0  0  0  0
   40.5210   38.1090   30.8810 C   0  0  0  0  0  0  0  0  0  0  0  0
   38.9830   35.3770   31.6170 N   0  0  0  0  0  0  0  0  0  0  0  0
   38.0440   38.7180   30.9320 C   0  0  0  0  0  0  0  0  0  0  0  0
   40.4940   34.5190   30.2360 O   0  0  0  0  0  0  0  0  0  0  0  0
   39.4860   39.2340   30.9280 C   0  0  0  0  0  0  0  0  0  0  0  0
  1  9  1  0
  1  7  1  0
  2  6  1  0
  2  1  1  0
  3 10  1  0
  6  5  1  0
  6 10  1  0
  7  4  1  0
 10  8  1  0
M  END
$$$$

     RDKit          3D

 18 20  0  0  0  0  0  0  0  0999 V2000
   37.5060   39.8390   30.6870 N   0  0  0  0  0  0  0  0  0  0  0  0
   38.9090   36.0790   31.7980 C   0  0  0  0  0  0  0  0  0  0  0  0
   37.6500   36.6960   31.8040 N   0  0  0  0  0  0  0  0  0  0  0  0
   34.4730   32.1940   33.8680 C   0  0  0  0  0  0  0  0  0  0  0  0
   39.2510   41.2880   30.0470 C   0  0  0  0  0  0  0  0  0  0  0  0
   34.8470   33.1240   32.7680 O   0  0  0  0  0  0  0  0  0  0  0  0
   39.3260   38.2170   31.1880 C   0  0  0  0  0  0  0  0  0  0  0  0
   38.7220   39.9720   30.5880 C   0  0  0  0  0  0  0  0  0  0  0  0
   34.0800   36.6510   32.9450 C   0  0  0  0  0  0  0  0  0  0  0  0
   36.1560   35.0100   32.4500 C   0  0  0  0  0  0  0  0  0  0  0  0
   37.9410   37.9180   31.1930 C   0  0  0  0  0  0  0  0  0  0  0  0
   33.9900   35.3260   33.3600 C   0  0  0  0  0  0  0  0  0  0  0  0
   39.8520   36.8360   31.5030 C   0  0  0  0  0  0  0  0  0  0  0  0
   34.9230   34.5410   32.8350 C   0  0  0  0  0  0  0  0  0  0  0  0
   33.2430   34.7540   34.3620 O   0  0  0  0  0  0  0  0  0  0  0  0
   36.2480   36.2760   32.2460 C   0  0  0  0  0  0  0  0  0  0  0  0
   35.1710   37.0650   32.3910 N   0  0  0  0  0  0  0  0  0  0  0  0
   36.9390   38.7560   30.8410 N   0  0  0  0  0  0  0  0  0  0  0  0
  1 18  1  0
  2  3  1  0
  3 16  1  0
  5  8  1  0
  6 14  1  0
  6  4  1  0
  7 11  1  0
  7 13  1  0
  8  1  2  0
  8  7  1  0
  9 12  1  0
 10 14  1  0
 11 18  1  0
 11  3  1  0
 12 15  1  0
 13  2  1  0
 14 12  2  0
 16 17  1  0
 16 10  2  0
 17  9  2  0
M  END
$$$$

     RDKit          3D

 11 11  0  0  0  0  0  0  0  0999 V2000
   40.9020   38.3780   31.9260 O   0  0  0  0  0  0  0  0  0  0  0  0
   40.9680   38.7050   30.4800 C   0  0  0  0  0  0  0  0  0  0  0  0
   42.1300   41.9150   31.8710 O   0  0  0  0  0  0  0  0  0  0  0  0
   41.2020   37.3850   30.3010 O   0  0  0  0  0  0  0  0  0  0  0  0
   42.2350   40.7360   31.0660 C   0  0  0  0  0  0  0  0  0  0  0  0
   40.5100   39.9740   27.8430 O   0  0  0  0  0  0  0  0  0  0  0  0
   41.1030   39.6480   29.2140 C   0  0  0  0  0  0  0  0  0  0  0  0
   39.8080   40.6910   31.1160 O   0  0  0  0  0  0  0  0  0  0  0  0
   38.3550   41.1720   29.4690 O   0  0  0  0  0  0  0  0  0  0  0  0
   40.9520   40.2340   30.2740 C   0  0  0  0  0  0  0  0  0  0  0  0
   38.4730   40.5060   30.7160 C   0  0  0  0  0  0  0  0  0  0  0  0
  2  1  1  0
  4  2  1  0
  5  3  1  0
  7  6  1  0
  7 10  1  0
  7  2  1  0
  9 11  1  0
 10  2  1  0
 10  5  1  0
 10  8  1  0
 11  8  1  0
M  END
$$$$

     RDKit          3D

 19 19  0  0  0  0  0  0  0  0999 V2000
   37.8140   29.2650   34.7160 C   0  0  0  0  0  0  0  0  0  0  0  0
   36.2990   33.4440   33.3040 C   0  0  0  0  0  0  0  0  0  0  0  0
   36.9010   35.5070   32.0930 C   0  0  0  0  0  0  0  0  0  0  0  0
   37.0850   32.5080   34.1910 C   0  0  0  0  0  0  0  0  0  0  0  0
   37.3390   34.0830   32.3940 C   0  0  0  0  0  0  0  0  0  0  0  0
   42.1610   38.6430   29.9640 C   0  0  0  0  0  0  0  0  0  0  0  0
   41.1780   38.6260   31.1360 C   0  0  0  0  0  0  0  0  0  0  0  0
   36.5040   31.2980   34.5120 N   0  0  0  0  0  0  0  0  0  0  0  0
   38.1450   37.2850   31.2240 C   0  0  0  0  0  0  0  0  0  0  0  0
   39.7970   38.6660   30.5080 C   0  0  0  0  0  0  0  0  0  0  0  0
   38.1460   36.2040   31.9650 N   0  0  0  0  0  0  0  0  0  0  0  0
   42.1520   40.0850   29.5520 C   0  0  0  0  0  0  0  0  0  0  0  0
   37.0270   30.4070   35.3580 C   0  0  0  0  0  0  0  0  0  0  0  0
   39.5880   40.7020   29.1330 C   0  0  0  0  0  0  0  0  0  0  0  0
   36.2240   30.0260   36.4690 C   0  0  0  0  0  0  0  0  0  0  0  0
   40.8700   40.7150   29.1290 N   0  0  0  0  0  0  0  0  0  0  0  0
   39.0320   39.6740   30.0340 C   0  0  0  0  0  0  0  0  0  0  0  0
   37.2190   38.1040   31.2650 O   0  0  0  0  0  0  0  0  0  0  0  0
   39.2830   37.4550   30.5370 N   0  0  0  0  0  0  0  0  0  0  0  0
  1 13  1  0
  2  4  1  0
  3  5  1  0
  4  8  2  3
  5  2  1  0
  6  7  1  0
  8 13  1  0
  9 18  2  0
  9 11  1  0
 10 19  1  0
 10  7  1  0
 11  3  1  0
 12  6  1  0
 13 15  1  0
 14 17  1  0
 16 14  1  0
 16 12  1  0
 17 10  1  0
 19  9  1  0
M  END
$$$$
