
     RDKit          3D

  7  6  0  0  0  0  0  0  0  0999 V2000
   35.3590   36.8250   27.5740 C   0  0  0  0  0  0  0  0  0  0  0  0
   33.2000   35.9660   28.4450 O   0  0  0  0  0  0  0  0  0  0  0  0
   34.5980   36.2070   28.6400 C   0  0  0  0  0  0  0  0  0  0  0  0
   35.2200   34.9350   29.0100 C   0  0  0  0  0  0  0  0  0  0  0  0
   37.0820   36.1690   28.1850 N   0  0  0  0  0  0  0  0  0  0  0  0
   36.6760   35.1380   28.6670 C   0  0  0  0  0  0  0  0  0  0  0  0
   37.5990   33.9560   28.9360 C   0  0  0  0  0  0  0  0  0  0  0  0
  2  3  1  0
  3  1  1  0
  3  4  1  0
  5  6  2  0
  6  7  1  0
  6  4  1  0
M  END
$$$$

     RDKit          3D

 15 16  0  0  0  0  0  0  0  0999 V2000
   38.0780   38.1560   28.4300 C   0  0  0  0  0  0  0  0  0  0  0  0
   40.6760   36.2380   28.9640 C   0  0  0  0  0  0  0  0  0  0  0  0
   40.9540   38.5250   29.0560 O   0  0  0  0  0  0  0  0  0  0  0  0
   36.6660   38.4820   28.1270 C   0  0  0  0  0  0  0  0  0  0  0  0
   40.8480   37.7750   26.7190 C   0  0  0  0  0  0  0  0  0  0  0  0
   39.4780   36.0010   28.0440 C   0  0  0  0  0  0  0  0  0  0  0  0
   39.6690   36.8470   26.7600 C   0  0  0  0  0  0  0  0  0  0  0  0
   36.3610   38.9690   26.9390 O   0  0  0  0  0  0  0  0  0  0  0  0
   41.5570   38.3430   27.7500 C   0  0  0  0  0  0  0  0  0  0  0  0
   38.2460   36.6830   28.5190 C   0  0  0  0  0  0  0  0  0  0  0  0
   42.1580   39.5760   27.4150 O   0  0  0  0  0  0  0  0  0  0  0  0
   35.7980   38.1930   28.9590 O   0  0  0  0  0  0  0  0  0  0  0  0
   40.7410   37.3970   29.6520 C   0  0  0  0  0  0  0  0  0  0  0  0
   39.1550   34.4840   28.2390 C   0  0  0  0  0  0  0  0  0  0  0  0
   38.3600   37.4910   29.7740 C   0  0  0  0  0  0  0  0  0  0  0  0
  1  4  1  0
  1 10  1  0
  1 15  1  0
  2 13  1  0
  3 13  1  0
  4 12  1  0
  5  7  1  0
  5  9  1  0
  6 14  1  0
  6 10  1  0
  6  2  1  0
  7  6  1  0
  8  4  2  0
  9 11  1  0
  9  3  1  0
 10 15  1  0
M  END
$$$$

     RDKit          3D

 13 13  0  0  0  0  0  0  0  0999 V2000
   40.5280   39.0010   28.2430 O   0  0  0  0  0  0  0  0  0  0  0  0
   39.8630   38.9470   30.2980 O   0  0  0  0  0  0  0  0  0  0  0  0
   39.0010   34.3760   29.3520 C   0  0  0  0  0  0  0  0  0  0  0  0
   37.2240   37.4730   29.0560 O   0  0  0  0  0  0  0  0  0  0  0  0
   41.6860   36.5940   28.0850 C   0  0  0  0  0  0  0  0  0  0  0  0
   40.1410   34.7900   28.6870 C   0  0  0  0  0  0  0  0  0  0  0  0
   38.0150   35.3100   29.6650 C   0  0  0  0  0  0  0  0  0  0  0  0
   39.5220   37.0440   29.0250 C   0  0  0  0  0  0  0  0  0  0  0  0
   38.2190   36.6170   29.2520 C   0  0  0  0  0  0  0  0  0  0  0  0
   40.0100   38.4100   29.1990 C   0  0  0  0  0  0  0  0  0  0  0  0
   36.8590   34.8560   30.5050 C   0  0  0  0  0  0  0  0  0  0  0  0
   36.7020   33.4290   30.4090 O   0  0  0  0  0  0  0  0  0  0  0  0
   40.4630   36.1260   28.6060 C   0  0  0  0  0  0  0  0  0  0  0  0
  1 10  2  0
  3  7  1  0
  4  9  1  0
  5 13  1  0
  6  3  2  0
  7 11  1  0
  8 10  1  0
  8  9  1  0
  9  7  2  0
 10  2  1  0
 12 11  1  0
 13  6  1  0
 13  8  2  0
M  END
$$$$

     RDKit          3D

 22 22  0  0  0  0  0  0  0  0999 V2000
   39.1250   34.4740   29.2460 C   0  0  0  0  0  0  0  0  0  0  0  0
   38.6200   35.6630   28.7810 C   0  0  0  0  0  0  0  0  0  0  0  0
   41.4610   34.8540   24.0950 O   0  0  0  0  0  0  0  0  0  0  0  0
   32.6600   35.0510   32.7500 C   0  0  0  0  0  0  0  0  0  0  0  0
   43.5090   35.5370   24.7280 O   0  0  0  0  0  0  0  0  0  0  0  0
   40.6050   37.1260   27.8530 C   0  0  0  0  0  0  0  0  0  0  0  0
   42.6000   37.8330   26.7350 O   0  0  0  0  0  0  0  0  0  0  0  0
   31.9470   35.4860   29.5030 N   0  0  0  0  0  0  0  0  0  0  0  0
   42.2320   35.1850   24.9800 C   0  0  0  0  0  0  0  0  0  0  0  0
   38.4790   33.6590   30.1650 C   0  0  0  0  0  0  0  0  0  0  0  0
   33.3440   36.3240   32.4550 C   0  0  0  0  0  0  0  0  0  0  0  0
   41.8520   35.3230   26.4760 C   0  0  0  0  0  0  0  0  0  0  0  0
   36.5880   35.3840   30.1810 C   0  0  0  0  0  0  0  0  0  0  0  0
   33.1540   34.8230   29.5790 C   0  0  0  0  0  0  0  0  0  0  0  0
   40.5580   38.1010   28.5600 O   0  0  0  0  0  0  0  0  0  0  0  0
   39.5050   36.2240   27.7760 N   0  0  0  0  0  0  0  0  0  0  0  0
   35.3520   35.4510   30.8330 C   0  0  0  0  0  0  0  0  0  0  0  0
   34.1570   35.8720   30.0440 C   0  0  0  0  0  0  0  0  0  0  0  0
   37.1970   33.9910   30.6130 C   0  0  0  0  0  0  0  0  0  0  0  0
   41.7400   36.7590   26.9780 C   0  0  0  0  0  0  0  0  0  0  0  0
   33.8210   36.8220   31.1310 C   0  0  0  0  0  0  0  0  0  0  0  0
   37.4050   36.1400   29.3380 C   0  0  0  0  0  0  0  0  0  0  0  0
  1 10  1  0
  2  1  2  0
  2 22  1  0
  3  9  2  0
  5  9  1  0
  6 15  2  0
  8 14  1  0
  9 12  1  0
 10 19  2  0
 11  4  1  0
 12 20  1  0
 13 19  1  0
 13 17  1  0
 16  6  1  0
 16  2  1  0
 18 14  1  0
 18 17  1  0
 18 21  1  0
 20  7  1  0
 20  6  1  0
 21 11  1  0
 22 13  2  0
M  END
$$$$

     RDKit          3D

 30 32  0  0  0  0  0  0  0  0999 V2000
   31.6210   33.0400   28.9560 C   0  0  0  0  0  0  0  0  0  0  0  0
   35.5570   35.5750   31.3240 C   0  0  0  0  0  0  0  0  0  0  0  0
   36.7750   36.0280   31.0730 N   0  0  0  0  0  0  0  0  0  0  0  0
   39.5120   34.4850   27.4800 O   0  0  0  0  0  0  0  0  0  0  0  0
   43.9140   39.1740   25.7730 O   0  0  0  0  0  0  0  0  0  0  0  0
   38.4080   32.7200   30.5700 C   0  0  0  0  0  0  0  0  0  0  0  0
   37.7030   35.1460   30.7140 C   0  0  0  0  0  0  0  0  0  0  0  0
   33.0800   33.5090   29.3300 N   0  0  0  0  0  0  0  0  0  0  0  0
   30.6310   33.7790   29.8220 C   0  0  0  0  0  0  0  0  0  0  0  0
   41.8910   39.3490   26.8680 N   0  0  0  0  0  0  0  0  0  0  0  0
   42.9720   39.2750   26.1260 C   0  0  0  0  0  0  0  0  0  0  0  0
   39.0020   35.3400   30.0930 N   0  0  0  0  0  0  0  0  0  0  0  0
   31.3760   35.0340   30.2170 C   0  0  0  0  0  0  0  0  0  0  0  0
   42.2590   36.9500   27.6740 O   0  0  0  0  0  0  0  0  0  0  0  0
   35.5270   34.2100   31.3940 C   0  0  0  0  0  0  0  0  0  0  0  0
   40.4310   37.1750   29.6490 C   0  0  0  0  0  0  0  0  0  0  0  0
   36.3130   33.2190   31.2590 N   0  0  0  0  0  0  0  0  0  0  0  0
   40.2610   35.4390   27.9630 C   0  0  0  0  0  0  0  0  0  0  0  0
   29.5340   34.1440   28.7740 C   0  0  0  0  0  0  0  0  0  0  0  0
   41.4110   37.6560   28.6510 C   0  0  0  0  0  0  0  0  0  0  0  0
   39.8800   35.9170   29.2950 C   0  0  0  0  0  0  0  0  0  0  0  0
   37.4240   33.7690   30.8500 C   0  0  0  0  0  0  0  0  0  0  0  0
   30.8870   36.1180   30.4310 O   0  0  0  0  0  0  0  0  0  0  0  0
   33.3420   34.8370   31.4940 C   0  0  0  0  0  0  0  0  0  0  0  0
   32.8980   34.8790   30.0230 C   0  0  0  0  0  0  0  0  0  0  0  0
   34.1610   36.1570   31.4980 C   0  0  0  0  0  0  0  0  0  0  0  0
   40.8610   38.6720   27.6540 C   0  0  0  0  0  0  0  0  0  0  0  0
   33.7920   32.5040   28.9460 C   0  0  0  0  0  0  0  0  0  0  0  0
   41.4670   35.8780   27.1640 C   0  0  0  0  0  0  0  0  0  0  0  0
   33.3290   31.1320   28.5350 C   0  0  0  0  0  0  0  0  0  0  0  0
  1  8  1  0
  1  9  1  0
  2 15  1  0
  2 26  1  0
  3  2  1  0
  4 18  1  0
  5 11  2  0
  7 22  1  0
  7  3  2  0
  8 25  1  0
  9 19  1  0
  9 13  1  0
 10 27  1  0
 11 10  2  0
 12  7  1  0
 13 23  2  0
 14 20  1  0
 17 15  2  0
 18 21  1  0
 20 27  1  0
 20 16  1  0
 21 16  1  0
 21 12  1  0
 22  6  1  0
 22 17  1  0
 24 26  1  0
 25 13  1  0
 25 24  1  0
 28  8  1  0
 29 14  1  0
 29 18  2  0
 30 28  1  0
M  END
$$$$

     RDKit          3D

 14 14  0  0  0  0  0  0  0  0999 V2000
   38.8930   38.1870   26.5270 C   0  0  0  0  0  0  0  0  0  0  0  0
   34.0570   37.3040   29.8090 C   0  0  0  0  0  0  0  0  0  0  0  0
   38.3650   36.5950   28.1370 C   0  0  0  0  0  0  0  0  0  0  0  0
   37.4360   37.7740   28.3180 C   0  0  0  0  0  0  0  0  0  0  0  0
   41.6540   35.9130   26.6070 C   0  0  0  0  0  0  0  0  0  0  0  0
   37.9710   38.7790   27.4430 O   0  0  0  0  0  0  0  0  0  0  0  0
   39.5190   37.0660   27.3080 C   0  0  0  0  0  0  0  0  0  0  0  0
   39.6460   38.9320   25.7690 O   0  0  0  0  0  0  0  0  0  0  0  0
   40.1250   35.8690   26.5070 C   0  0  0  0  0  0  0  0  0  0  0  0
   38.0570   35.6590   29.0620 O   0  0  0  0  0  0  0  0  0  0  0  0
   42.1550   36.3690   25.3390 O   0  0  0  0  0  0  0  0  0  0  0  0
   35.3430   36.6900   29.3750 C   0  0  0  0  0  0  0  0  0  0  0  0
   40.2780   37.6940   28.3610 O   0  0  0  0  0  0  0  0  0  0  0  0
   36.0920   37.4530   28.3740 N   0  0  0  0  0  0  0  0  0  0  0  0
  1  8  1  0
  1  7  1  0
  1  6  1  0
  3  4  1  0
  3 10  1  0
  4 14  1  0
  6  4  1  0
  7  3  1  0
  7 13  1  0
  9  5  1  0
  9  7  1  0
 11  5  1  0
 12  2  1  0
 14 12  1  0
M  END
$$$$

     RDKit          3D

 23 25  0  0  0  0  0  0  0  0999 V2000
   35.8030   34.1190   33.3890 C   0  0  0  0  0  0  0  0  0  0  0  0
   37.6440   35.2610   30.4240 C   0  0  0  0  0  0  0  0  0  0  0  0
   42.0890   36.6260   26.3600 C   0  0  0  0  0  0  0  0  0  0  0  0
   42.7610   37.2320   25.1380 C   0  0  0  0  0  0  0  0  0  0  0  0
   34.7410   34.2830   34.2250 C   0  0  0  0  0  0  0  0  0  0  0  0
   38.2810   37.2040   29.3570 C   0  0  0  0  0  0  0  0  0  0  0  0
   41.5680   36.8130   27.5340 C   0  0  0  0  0  0  0  0  0  0  0  0
   41.6230   39.5840   23.6110 C   0  0  0  0  0  0  0  0  0  0  0  0
   42.8620   39.6150   25.7550 O   0  0  0  0  0  0  0  0  0  0  0  0
   32.6700   34.9710   35.4630 Cl  0  0  0  0  0  0  0  0  0  0  0  0
   42.1970   40.8560   23.6410 N   0  0  0  0  0  0  0  0  0  0  0  0
   39.4590   35.2160   28.8670 C   0  0  0  0  0  0  0  0  0  0  0  0
   40.0540   37.2570   27.6090 C   0  0  0  0  0  0  0  0  0  0  0  0
   33.6840   35.4840   32.9250 N   0  0  0  0  0  0  0  0  0  0  0  0
   39.3220   36.5510   28.7040 C   0  0  0  0  0  0  0  0  0  0  0  0
   42.1700   35.4210   27.0800 C   0  0  0  0  0  0  0  0  0  0  0  0
   42.3860   38.6740   24.7780 C   0  0  0  0  0  0  0  0  0  0  0  0
   36.8120   34.4960   31.2860 N   0  0  0  0  0  0  0  0  0  0  0  0
   38.6750   34.6090   29.7400 C   0  0  0  0  0  0  0  0  0  0  0  0
   35.6910   34.7830   32.1400 C   0  0  0  0  0  0  0  0  0  0  0  0
   34.6090   35.3540   32.0380 C   0  0  0  0  0  0  0  0  0  0  0  0
   33.7840   34.8010   34.0430 C   0  0  0  0  0  0  0  0  0  0  0  0
   37.4680   36.5940   30.2230 C   0  0  0  0  0  0  0  0  0  0  0  0
  1  5  1  0
  2 18  1  0
  3  4  1  0
  3 16  1  0
  3  7  1  0
  6 23  2  0
  7 13  1  0
  8 11  1  0
  8 17  1  0
 12 19  1  0
 13 15  1  0
 14 22  1  0
 15 12  2  0
 15  6  1  0
 16  7  1  0
 17  4  1  0
 17  9  1  0
 18 20  1  0
 19  2  2  0
 20  1  2  0
 21 20  1  0
 21 14  2  0
 22  5  2  0
 22 10  1  0
 23  2  1  0
M  END
$$$$

     RDKit          3D

  9  9  0  0  0  0  0  0  0  0999 V2000
   40.1590   37.7800   25.4120 C   0  0  0  0  0  0  0  0  0  0  0  0
   39.8470   35.2510   25.3420 N   0  0  0  0  0  0  0  0  0  0  0  0
   41.3130   38.8430   25.4090 O   0  0  0  0  0  0  0  0  0  0  0  0
   43.0320   36.7700   25.3740 O   0  0  0  0  0  0  0  0  0  0  0  0
   42.1270   35.5310   27.0090 O   0  0  0  0  0  0  0  0  0  0  0  0
   42.0100   36.3060   26.0560 C   0  0  0  0  0  0  0  0  0  0  0  0
   38.5700   37.3110   25.6780 C   0  0  0  0  0  0  0  0  0  0  0  0
   39.1950   38.2400   26.2460 C   0  0  0  0  0  0  0  0  0  0  0  0
   40.7540   36.3740   25.2010 C   0  0  0  0  0  0  0  0  0  0  0  0
  1  7  1  0
  1  8  1  0
  3  1  1  0
  4  6  2  0
  6  5  1  0
  7  8  1  0
  9  2  1  0
  9  1  1  0
  9  6  1  0
M  END
$$$$

     RDKit          3D

  8  7  0  0  0  0  0  0  0  0999 V2000
   41.1560   35.8510   25.4340 C   0  0  0  0  0  0  0  0  0  0  0  0
   41.6040   37.2810   27.7850 C   0  0  0  0  0  0  0  0  0  0  0  0
   40.2120   34.8250   26.5170 C   0  0  0  0  0  0  0  0  0  0  0  0
   40.2320   37.6500   27.3410 C   0  0  0  0  0  0  0  0  0  0  0  0
   40.3220   37.1810   25.8950 C   0  0  0  0  0  0  0  0  0  0  0  0
   38.8640   36.4070   26.1050 O   0  0  0  0  0  0  0  0  0  0  0  0
   42.5970   38.0950   26.9560 C   0  0  0  0  0  0  0  0  0  0  0  0
   42.2210   35.4230   25.5770 O   0  0  0  0  0  0  0  0  0  0  0  0
  1  8  1  0
  1  5  1  0
  1  3  1  0
  4  2  1  0
  5  6  1  0
  5  4  1  0
  7  2  1  0
M  END
$$$$

     RDKit          3D

  9  9  0  0  0  0  0  0  0  0999 V2000
   35.2790   34.1280   28.3380 O   0  0  0  0  0  0  0  0  0  0  0  0
   37.5590   35.5400   30.1620 F   0  0  0  0  0  0  0  0  0  0  0  0
   35.5710   36.5250   31.1010 C   0  0  0  0  0  0  0  0  0  0  0  0
   33.9560   35.6080   29.5360 C   0  0  0  0  0  0  0  0  0  0  0  0
   34.0250   35.2320   31.9330 O   0  0  0  0  0  0  0  0  0  0  0  0
   33.1900   34.4070   29.5000 O   0  0  0  0  0  0  0  0  0  0  0  0
   34.1430   36.1920   30.9230 C   0  0  0  0  0  0  0  0  0  0  0  0
   35.3370   35.3440   29.0240 C   0  0  0  0  0  0  0  0  0  0  0  0
   36.2200   35.4330   30.2450 C   0  0  0  0  0  0  0  0  0  0  0  0
  4  6  1  0
  4  7  1  0
  7  3  1  0
  7  5  1  0
  8  1  1  0
  8  4  1  0
  8  9  1  0
  9  2  1  0
  9  3  1  0
M  END
$$$$

     RDKit          3D

  6  6  0  0  0  0  0  0  0  0999 V2000
   37.3640   30.2720   29.3570 C   0  0  0  0  0  0  0  0  0  0  0  0
   36.8930   31.5130   29.8940 N   0  0  0  0  0  0  0  0  0  0  0  0
   34.3370   31.7830   29.0730 C   0  0  0  0  0  0  0  0  0  0  0  0
   34.0120   33.0180   29.5790 N   0  0  0  0  0  0  0  0  0  0  0  0
   36.6340   32.6780   29.4370 C   0  0  0  0  0  0  0  0  0  0  0  0
   35.2450   32.9680   28.9550 C   0  0  0  0  0  0  0  0  0  0  0  0
  1  2  1  0
  3  4  1  0
  5  2  1  0
  6  3  1  0
  6  5  1  0
  6  4  1  0
M  END
$$$$

     RDKit          3D

 23 24  0  0  0  0  0  0  0  0999 V2000
   41.5870   35.5260   27.4690 C   0  0  0  0  0  0  0  0  0  0  0  0
   36.4240   33.9680   30.9320 C   0  0  0  0  0  0  0  0  0  0  0  0
   37.0270   31.4900   33.0470 N   0  0  0  0  0  0  0  0  0  0  0  0
   34.1870   33.8290   30.2520 C   0  0  0  0  0  0  0  0  0  0  0  0
   37.3440   35.7320   29.3470 O   0  0  0  0  0  0  0  0  0  0  0  0
   40.6550   37.5700   26.2560 C   0  0  0  0  0  0  0  0  0  0  0  0
   39.4550   36.8810   28.3280 C   0  0  0  0  0  0  0  0  0  0  0  0
   35.9860   32.9200   31.4490 C   0  0  0  0  0  0  0  0  0  0  0  0
   36.2550   36.0030   28.9980 C   0  0  0  0  0  0  0  0  0  0  0  0
   34.0010   34.9670   29.3580 C   0  0  0  0  0  0  0  0  0  0  0  0
   36.0930   31.7310   32.1950 C   0  0  0  0  0  0  0  0  0  0  0  0
   35.0690   30.9170   32.1950 O   0  0  0  0  0  0  0  0  0  0  0  0
   33.2980   32.6100   30.3930 C   0  0  0  0  0  0  0  0  0  0  0  0
   38.1840   37.4780   27.8270 C   0  0  0  0  0  0  0  0  0  0  0  0
   41.7220   37.5570   25.3790 N   0  0  0  0  0  0  0  0  0  0  0  0
   39.6660   39.3950   24.8150 C   0  0  0  0  0  0  0  0  0  0  0  0
   35.0720   35.5420   29.3210 C   0  0  0  0  0  0  0  0  0  0  0  0
   36.9830   37.9530   28.5090 C   0  0  0  0  0  0  0  0  0  0  0  0
   38.3110   38.3860   26.6500 C   0  0  0  0  0  0  0  0  0  0  0  0
   35.3780   33.7110   30.7850 C   0  0  0  0  0  0  0  0  0  0  0  0
   40.5500   36.6560   27.3230 C   0  0  0  0  0  0  0  0  0  0  0  0
   39.5630   38.4480   25.9830 C   0  0  0  0  0  0  0  0  0  0  0  0
   35.9520   36.9850   28.3100 O   0  0  0  0  0  0  0  0  0  0  0  0
  2  8  1  0
  4 13  1  0
  4 20  1  0
  6 21  1  0
  8 11  1  0
  9 17  1  0
  9  5  2  0
 10  4  1  0
 11  3  1  0
 12 11  2  0
 14  7  1  0
 14 18  1  0
 15  6  1  0
 16 22  1  0
 17 10  1  0
 19 14  2  0
 20  2  1  0
 20  8  2  0
 21  1  1  0
 21  7  2  0
 22  6  2  0
 22 19  1  0
 23 18  1  0
 23  9  1  0
M  END
$$$$

     RDKit          3D

  5  5  0  0  0  0  0  0  0  0999 V2000
   40.0790   34.5770   23.5320 C   0  0  0  0  0  0  0  0  0  0  0  0
   40.2720   35.3910   24.3690 C   0  0  0  0  0  0  0  0  0  0  0  0
   41.0010   36.4820   23.4980 O   0  0  0  0  0  0  0  0  0  0  0  0
   40.2520   36.8350   24.7520 C   0  0  0  0  0  0  0  0  0  0  0  0
   40.8620   34.8000   25.6180 N   0  0  0  0  0  0  0  0  0  0  0  0
  2  1  1  0
  2  4  1  0
  2  5  1  0
  3  2  1  0
  3  4  1  0
M  END
$$$$

     RDKit          3D

 15 16  0  0  0  0  0  0  0  0999 V2000
   37.7410   36.4000   28.8280 C   0  0  0  0  0  0  0  0  0  0  0  0
   40.8980   35.7500   28.3030 C   0  0  0  0  0  0  0  0  0  0  0  0
   39.7820   36.5680   27.7000 C   0  0  0  0  0  0  0  0  0  0  0  0
   34.3400   37.1900   29.6900 N   0  0  0  0  0  0  0  0  0  0  0  0
   42.6340   34.5950   26.7670 O   0  0  0  0  0  0  0  0  0  0  0  0
   41.5120   36.5320   26.2180 C   0  0  0  0  0  0  0  0  0  0  0  0
   37.9950   35.3740   29.5730 N   0  0  0  0  0  0  0  0  0  0  0  0
   42.3940   37.2290   25.6350 O   0  0  0  0  0  0  0  0  0  0  0  0
   40.2280   37.2100   26.5190 C   0  0  0  0  0  0  0  0  0  0  0  0
   37.1930   35.2090   30.6290 C   0  0  0  0  0  0  0  0  0  0  0  0
   35.5610   36.7060   29.7010 C   0  0  0  0  0  0  0  0  0  0  0  0
   35.9710   35.8960   30.7280 C   0  0  0  0  0  0  0  0  0  0  0  0
   38.7320   36.8840   28.0280 N   0  0  0  0  0  0  0  0  0  0  0  0
   36.5080   37.0410   28.7220 C   0  0  0  0  0  0  0  0  0  0  0  0
   41.3480   35.1610   26.8280 C   0  0  0  0  0  0  0  0  0  0  0  0
  1  7  2  0
  3 13  1  0
  3  2  1  0
  4 11  1  0
  6  9  1  0
  6 15  1  0
  7 10  1  0
  8  6  2  0
  9  3  1  0
 10 12  1  0
 11 12  2  0
 13  1  1  0
 14  1  1  0
 14 11  1  0
 15  5  1  0
 15  2  1  0
M  END
$$$$

     RDKit          3D

 10 10  0  0  0  0  0  0  0  0999 V2000
   38.6080   34.9180   29.1610 C   0  0  0  0  0  0  0  0  0  0  0  0
   34.9920   34.8810   30.1380 C   0  0  0  0  0  0  0  0  0  0  0  0
   39.2570   36.1420   28.8400 O   0  0  0  0  0  0  0  0  0  0  0  0
   36.1170   35.3450   29.4670 C   0  0  0  0  0  0  0  0  0  0  0  0
   33.7680   34.7230   29.4800 C   0  0  0  0  0  0  0  0  0  0  0  0
   33.5470   35.3230   28.2310 C   0  0  0  0  0  0  0  0  0  0  0  0
   38.5200   34.1810   27.9680 O   0  0  0  0  0  0  0  0  0  0  0  0
   37.4720   35.0230   30.0810 C   0  0  0  0  0  0  0  0  0  0  0  0
   35.8740   36.0220   28.2870 C   0  0  0  0  0  0  0  0  0  0  0  0
   34.6070   36.0750   27.7260 C   0  0  0  0  0  0  0  0  0  0  0  0
  1  8  1  0
  3  1  1  0
  4  8  1  0
  4  2  2  0
  5  2  1  0
  6  5  2  0
  7  1  1  0
  9  4  1  0
 10  6  1  0
 10  9  2  0
M  END
$$$$

     RDKit          3D

  5  4  0  0  0  0  0  0  0  0999 V2000
   38.3710   36.1470   25.9070 C   0  0  0  0  0  0  0  0  0  0  0  0
   37.9110   33.7490   26.3410 N   0  0  0  0  0  0  0  0  0  0  0  0
   36.3170   35.1310   25.3800 C   0  0  0  0  0  0  0  0  0  0  0  0
   37.7910   34.8440   25.4340 C   0  0  0  0  0  0  0  0  0  0  0  0
   35.5800   34.3530   24.4860 F   0  0  0  0  0  0  0  0  0  0  0  0
  3  4  1  0
  4  1  1  0
  4  2  1  0
  5  3  1  0
M  END
$$$$

     RDKit          3D

 27 27  0  0  0  0  0  0  0  0999 V2000
   42.8030   38.3770   24.3060 C   0  0  0  0  0  0  0  0  0  0  0  0
   39.6710   38.0060   27.7640 O   0  0  0  0  0  0  0  0  0  0  0  0
   39.2610   33.9840   29.8760 C   0  0  0  0  0  0  0  0  0  0  0  0
   37.9410   35.9870   29.9150 O   0  0  0  0  0  0  0  0  0  0  0  0
   36.9370   29.9150   28.6140 C   0  0  0  0  0  0  0  0  0  0  0  0
   36.8520   33.7060   30.4590 N   0  0  0  0  0  0  0  0  0  0  0  0
   35.6510   31.7900   29.8080 C   0  0  0  0  0  0  0  0  0  0  0  0
   34.5920   33.3700   31.4330 C   0  0  0  0  0  0  0  0  0  0  0  0
   39.7020   37.1050   28.7760 C   0  0  0  0  0  0  0  0  0  0  0  0
   33.9910   32.4200   31.9330 O   0  0  0  0  0  0  0  0  0  0  0  0
   36.8500   31.2820   29.2900 C   0  0  0  0  0  0  0  0  0  0  0  0
   37.9790   33.1850   29.9140 C   0  0  0  0  0  0  0  0  0  0  0  0
   44.7100   37.7580   25.4850 O   0  0  0  0  0  0  0  0  0  0  0  0
   43.1680   35.9690   24.6170 C   0  0  0  0  0  0  0  0  0  0  0  0
   43.3860   37.3540   25.2780 C   0  0  0  0  0  0  0  0  0  0  0  0
   37.4350   37.7040   28.3630 C   0  0  0  0  0  0  0  0  0  0  0  0
   41.3970   36.7440   26.7390 C   0  0  0  0  0  0  0  0  0  0  0  0
   36.0430   37.1580   28.3530 C   0  0  0  0  0  0  0  0  0  0  0  0
   40.2790   38.9620   26.0020 C   0  0  0  0  0  0  0  0  0  0  0  0
   34.1870   34.6180   31.5440 N   0  0  0  0  0  0  0  0  0  0  0  0
   39.1080   35.3130   30.3070 C   0  0  0  0  0  0  0  0  0  0  0  0
   35.6950   33.0270   30.5160 C   0  0  0  0  0  0  0  0  0  0  0  0
   38.0060   31.9780   29.3730 N   0  0  0  0  0  0  0  0  0  0  0  0
   40.2810   37.5940   26.5260 C   0  0  0  0  0  0  0  0  0  0  0  0
   42.7690   37.3640   26.6890 C   0  0  0  0  0  0  0  0  0  0  0  0
   38.3340   37.0970   29.3250 C   0  0  0  0  0  0  0  0  0  0  0  0
   38.9190   39.1120   25.4530 O   0  0  0  0  0  0  0  0  0  0  0  0
  1 15  1  0
  2  9  1  0
  3 12  1  0
  3 21  1  0
  4 21  1  0
  5 11  1  0
  6 22  1  0
  7 22  2  0
  8 20  1  0
  8 10  2  0
  9 26  1  0
 11 23  2  0
 11  7  1  0
 12  6  2  0
 14 15  1  0
 15 13  1  0
 15 25  1  0
 18 16  1  0
 22  8  1  0
 23 12  1  0
 24 19  1  0
 24 17  1  0
 24  2  1  0
 25 17  1  0
 26 16  1  0
 26  4  1  0
 27 19  1  0
M  END
$$$$

     RDKit          3D

  6  5  0  0  0  0  0  0  0  0999 V2000
   40.8830   34.9560   29.1410 C   0  0  0  0  0  0  0  0  0  0  0  0
   41.9850   37.1470   25.7770 N   0  0  0  0  0  0  0  0  0  0  0  0
   40.6310   34.9700   26.7050 C   0  0  0  0  0  0  0  0  0  0  0  0
   40.6610   35.6590   27.9440 O   0  0  0  0  0  0  0  0  0  0  0  0
   40.6630   36.1030   25.5140 C   0  0  0  0  0  0  0  0  0  0  0  0
   41.5660   34.1200   26.5460 O   0  0  0  0  0  0  0  0  0  0  0  0
  3  6  1  0
  3  4  1  0
  4  1  1  0
  5  2  1  0
  5  3  1  0
M  END
$$$$

     RDKit          3D

 12 11  0  0  0  0  0  0  0  0999 V2000
   39.1950   38.1440   28.3370 C   0  0  0  0  0  0  0  0  0  0  0  0
   40.2730   35.7930   25.3240 C   0  0  0  0  0  0  0  0  0  0  0  0
   40.7350   35.7730   24.1570 O   0  0  0  0  0  0  0  0  0  0  0  0
   37.3250   36.8340   27.4560 O   0  0  0  0  0  0  0  0  0  0  0  0
   39.9050   37.1580   25.9550 C   0  0  0  0  0  0  0  0  0  0  0  0
   38.4120   36.8450   28.3670 C   0  0  0  0  0  0  0  0  0  0  0  0
   40.2700   34.7590   26.0210 O   0  0  0  0  0  0  0  0  0  0  0  0
   39.9760   38.0110   24.7820 N   0  0  0  0  0  0  0  0  0  0  0  0
   39.4440   38.3180   26.8650 C   0  0  0  0  0  0  0  0  0  0  0  0
   40.4650   38.1440   29.1540 C   0  0  0  0  0  0  0  0  0  0  0  0
   40.3060   38.1210   30.3960 O   0  0  0  0  0  0  0  0  0  0  0  0
   41.5950   38.2000   28.6210 O   0  0  0  0  0  0  0  0  0  0  0  0
  1  9  1  0
  1  6  1  0
  1 10  1  0
  2  5  1  0
  2  7  1  0
  3  2  2  0
  4  6  1  0
  5  9  2  3
  8  5  1  0
 10 11  1  0
 12 10  2  0
M  END
$$$$

     RDKit          3D

 20 20  0  0  0  0  0  0  0  0999 V2000
   37.4950   37.5240   29.0660 C   0  0  0  0  0  0  0  0  0  0  0  0
   34.2680   30.3530   29.6300 C   0  0  0  0  0  0  0  0  0  0  0  0
   38.4300   33.7070   30.3400 O   0  0  0  0  0  0  0  0  0  0  0  0
   34.6780   31.4660   29.3650 C   0  0  0  0  0  0  0  0  0  0  0  0
   37.7660   36.1810   29.2340 C   0  0  0  0  0  0  0  0  0  0  0  0
   37.3050   33.9660   30.0400 C   0  0  0  0  0  0  0  0  0  0  0  0
   38.9400   35.6420   28.7200 C   0  0  0  0  0  0  0  0  0  0  0  0
   39.8590   35.9700   27.8340 C   0  0  0  0  0  0  0  0  0  0  0  0
   36.9410   35.2870   29.8480 N   0  0  0  0  0  0  0  0  0  0  0  0
   40.2940   37.2360   27.5450 C   0  0  0  0  0  0  0  0  0  0  0  0
   38.4400   38.4770   28.6950 C   0  0  0  0  0  0  0  0  0  0  0  0
   35.0790   32.9810   29.9110 C   0  0  0  0  0  0  0  0  0  0  0  0
   33.9610   32.7960   29.5320 C   0  0  0  0  0  0  0  0  0  0  0  0
   41.5960   37.2020   26.9660 C   0  0  0  0  0  0  0  0  0  0  0  0
   36.4850   32.8410   29.8420 N   0  0  0  0  0  0  0  0  0  0  0  0
   43.3710   35.8780   25.8660 C   0  0  0  0  0  0  0  0  0  0  0  0
   42.1320   35.9930   26.6120 N   0  0  0  0  0  0  0  0  0  0  0  0
   39.6550   38.3810   28.0480 C   0  0  0  0  0  0  0  0  0  0  0  0
   33.6750   29.3240   28.8360 N   0  0  0  0  0  0  0  0  0  0  0  0
   41.8700   38.2340   26.2000 O   0  0  0  0  0  0  0  0  0  0  0  0
  1  5  1  0
  4 13  1  0
  4  2  1  0
  5  9  2  3
  6  3  2  0
  7  5  1  0
  8  7  2  0
  9  6  1  0
 10  8  1  0
 10 18  2  0
 11  1  2  0
 13 12  1  0
 14 10  1  0
 15 12  1  0
 15  6  1  0
 16 17  1  0
 17 14  1  0
 18 11  1  0
 19  2  1  0
 20 14  2  0
M  END
$$$$
