
     RDKit          3D

 12 12  0  0  0  0  0  0  0  0999 V2000
   35.3550   36.4790   31.1610 C   0  0  0  0  0  0  0  0  0  0  0  0
   31.7910   36.1610   33.0280 C   0  0  0  0  0  0  0  0  0  0  0  0
   33.9830   36.6260   31.4570 C   0  0  0  0  0  0  0  0  0  0  0  0
   35.9750   39.5000   29.2510 O   0  0  0  0  0  0  0  0  0  0  0  0
   34.7530   33.7900   32.6000 C   0  0  0  0  0  0  0  0  0  0  0  0
   31.5260   35.4950   34.2980 O   0  0  0  0  0  0  0  0  0  0  0  0
   33.9880   38.7070   30.1800 C   0  0  0  0  0  0  0  0  0  0  0  0
   36.0650   37.4790   30.4700 C   0  0  0  0  0  0  0  0  0  0  0  0
   33.2570   37.7050   30.8300 C   0  0  0  0  0  0  0  0  0  0  0  0
   33.7140   34.4960   33.0150 C   0  0  0  0  0  0  0  0  0  0  0  0
   35.4380   38.6560   30.1240 C   0  0  0  0  0  0  0  0  0  0  0  0
   32.9980   35.7510   32.3180 C   0  0  0  0  0  0  0  0  0  0  0  0
  1  3  1  0
  2  6  1  0
  3 12  1  0
  4 11  1  0
  5 10  2  0
  7  9  1  0
  8  1  2  0
  9  3  2  0
 11  7  2  0
 11  8  1  0
 12 10  1  0
 12  2  1  0
M  END
$$$$

     RDKit          3D

 12 12  0  0  0  0  0  0  0  0999 V2000
   33.8810   41.3950   27.8930 C   0  0  0  0  0  0  0  0  0  0  0  0
   34.7150   39.7990   29.4030 C   0  0  0  0  0  0  0  0  0  0  0  0
   35.9780   40.2180   29.0590 C   0  0  0  0  0  0  0  0  0  0  0  0
   35.0960   41.7440   27.3400 C   0  0  0  0  0  0  0  0  0  0  0  0
   34.3130   38.4780   29.9840 C   0  0  0  0  0  0  0  0  0  0  0  0
   31.9500   36.8200   31.8620 N   0  0  0  0  0  0  0  0  0  0  0  0
   33.0430   36.8820   31.2070 N   0  0  0  0  0  0  0  0  0  0  0  0
   33.9510   36.0880   31.4080 O   0  0  0  0  0  0  0  0  0  0  0  0
   33.5980   40.5070   28.7760 C   0  0  0  0  0  0  0  0  0  0  0  0
   33.2610   37.8770   30.2720 C   0  0  0  0  0  0  0  0  0  0  0  0
   37.4380   41.5880   27.8530 O   0  0  0  0  0  0  0  0  0  0  0  0
   36.2000   41.2250   28.0650 C   0  0  0  0  0  0  0  0  0  0  0  0
  1  9  1  0
  2  5  1  0
  3  2  1  0
  4  1  2  0
  4 12  1  0
  5 10  1  0
  7  8  1  0
  7  6  1  0
  9  2  2  0
 10  7  1  0
 11 12  1  0
 12  3  2  0
M  END
$$$$

     RDKit          3D

  7  6  0  0  0  0  0  0  0  0999 V2000
   33.8480   38.9820   28.3270 S   0  0  0  0  0  0  0  0  0  0  0  0
   35.9560   40.5860   27.7230 C   0  0  0  0  0  0  0  0  0  0  0  0
   35.2760   39.1920   27.5110 C   0  0  0  0  0  0  0  0  0  0  0  0
   36.0350   41.1430   28.8610 O   0  0  0  0  0  0  0  0  0  0  0  0
   35.3760   41.1050   25.2930 C   0  0  0  0  0  0  0  0  0  0  0  0
   34.3460   41.4860   25.7610 O   0  0  0  0  0  0  0  0  0  0  0  0
   36.5420   41.1390   26.5210 C   0  0  0  0  0  0  0  0  0  0  0  0
  2  4  2  0
  3  2  1  0
  3  1  1  0
  5  6  1  0
  5  7  1  0
  7  2  1  0
M  END
$$$$

     RDKit          3D

 22 24  0  0  0  0  0  0  0  0999 V2000
   31.2780   37.9250   27.1950 C   0  0  0  0  0  0  0  0  0  0  0  0
   30.5380   37.2580   30.8510 C   0  0  0  0  0  0  0  0  0  0  0  0
   33.3160   39.1820   27.9750 C   0  0  0  0  0  0  0  0  0  0  0  0
   31.1730   36.6630   29.5310 C   0  0  0  0  0  0  0  0  0  0  0  0
   29.4800   34.8340   26.1430 C   0  0  0  0  0  0  0  0  0  0  0  0
   29.4830   36.4530   26.1690 C   0  0  0  0  0  0  0  0  0  0  0  0
   34.4200   39.8120   27.7790 C   0  0  0  0  0  0  0  0  0  0  0  0
   28.9670   35.9040   32.7380 C   0  0  0  0  0  0  0  0  0  0  0  0
   34.0050   40.7280   28.1070 O   0  0  0  0  0  0  0  0  0  0  0  0
   37.5450   42.2570   28.6630 C   0  0  0  0  0  0  0  0  0  0  0  0
   37.2360   39.3490   27.1850 S   0  0  0  0  0  0  0  0  0  0  0  0
   36.1220   41.7530   28.5500 C   0  0  0  0  0  0  0  0  0  0  0  0
   31.8380   37.6870   28.7800 C   0  0  0  0  0  0  0  0  0  0  0  0
   38.9650   41.3240   26.7960 O   0  0  0  0  0  0  0  0  0  0  0  0
   38.5520   41.7660   27.9920 C   0  0  0  0  0  0  0  0  0  0  0  0
   36.0830   40.3730   27.8400 C   0  0  0  0  0  0  0  0  0  0  0  0
   38.4640   40.0760   26.2210 C   0  0  0  0  0  0  0  0  0  0  0  0
   32.9180   38.4880   29.2910 C   0  0  0  0  0  0  0  0  0  0  0  0
   29.4570   36.2730   31.3380 C   0  0  0  0  0  0  0  0  0  0  0  0
   30.3330   36.8770   27.2550 N   0  0  0  0  0  0  0  0  0  0  0  0
   30.3220   36.1010   28.4750 N   0  0  0  0  0  0  0  0  0  0  0  0
   32.4060   38.8770   26.8940 C   0  0  0  0  0  0  0  0  0  0  0  0
  1 20  1  0
  1 13  1  0
  2 19  1  0
  3 18  2  0
  4  2  1  0
  5  6  1  0
  6 20  1  0
  7  3  1  0
  7  9  2  0
 11 16  1  0
 12 10  1  0
 13 18  1  0
 13  4  1  0
 14 15  1  0
 15 10  1  0
 16  7  1  0
 16 12  1  0
 17 14  1  0
 17 11  1  0
 19  8  1  0
 20 21  1  0
 21  4  1  0
 22  1  2  0
 22  3  1  0
M  END
$$$$

     RDKit          3D

  9  8  0  0  0  0  0  0  0  0999 V2000
   37.3790   42.1290   28.5460 C   0  0  0  0  0  0  0  0  0  0  0  0
   38.2490   42.6600   29.1990 O   0  0  0  0  0  0  0  0  0  0  0  0
   35.2080   39.7560   29.0850 C   0  0  0  0  0  0  0  0  0  0  0  0
   35.9360   40.7580   27.6590 C   0  0  0  0  0  0  0  0  0  0  0  0
   34.0930   39.5380   28.2790 O   0  0  0  0  0  0  0  0  0  0  0  0
   35.8170   41.1590   26.7020 O   0  0  0  0  0  0  0  0  0  0  0  0
   37.0350   40.6570   30.0420 O   0  0  0  0  0  0  0  0  0  0  0  0
   36.3780   40.8320   28.9190 C   0  0  0  0  0  0  0  0  0  0  0  0
   35.0170   38.9130   30.2360 C   0  0  0  0  0  0  0  0  0  0  0  0
  1  8  1  0
  1  2  2  0
  3  9  1  0
  4  8  1  0
  5  3  1  0
  6  4  2  0
  8  3  1  0
  8  7  1  0
M  END
$$$$

     RDKit          3D

 13 13  0  0  0  0  0  0  0  0999 V2000
   35.5570   38.1460   29.7510 C   0  0  0  0  0  0  0  0  0  0  0  0
   34.1840   39.8900   28.6900 C   0  0  0  0  0  0  0  0  0  0  0  0
   33.1550   34.9350   32.5560 O   0  0  0  0  0  0  0  0  0  0  0  0
   33.6430   39.0720   29.7290 C   0  0  0  0  0  0  0  0  0  0  0  0
   36.2720   38.6740   28.9680 C   0  0  0  0  0  0  0  0  0  0  0  0
   31.6950   36.4950   29.7470 C   0  0  0  0  0  0  0  0  0  0  0  0
   34.0180   36.8940   30.7630 N   0  0  0  0  0  0  0  0  0  0  0  0
   35.4770   39.7250   28.2480 C   0  0  0  0  0  0  0  0  0  0  0  0
   34.2730   38.0460   30.0460 C   0  0  0  0  0  0  0  0  0  0  0  0
   30.8180   35.4820   32.0640 C   0  0  0  0  0  0  0  0  0  0  0  0
   36.1420   40.5420   27.1600 C   0  0  0  0  0  0  0  0  0  0  0  0
   32.6210   36.5580   30.9580 C   0  0  0  0  0  0  0  0  0  0  0  0
   32.2690   35.2640   31.6940 C   0  0  0  0  0  0  0  0  0  0  0  0
  1  9  1  0
  2  4  2  0
  4  9  1  0
  5  1  1  0
  7 12  1  0
  8 11  1  0
  8  2  1  0
  8  5  1  0
  9  7  1  0
 12  6  1  0
 12 13  1  0
 13 10  1  0
 13  3  1  0
M  END
$$$$

     RDKit          3D

 12 12  0  0  0  0  0  0  0  0999 V2000
   32.4790   35.2450   31.0900 C   0  0  0  0  0  0  0  0  0  0  0  0
   33.8000   37.0970   30.2760 C   0  0  0  0  0  0  0  0  0  0  0  0
   33.6930   38.4240   30.7380 C   0  0  0  0  0  0  0  0  0  0  0  0
   36.4640   40.6000   29.7780 O   0  0  0  0  0  0  0  0  0  0  0  0
   31.0840   35.5630   31.7950 C   0  0  0  0  0  0  0  0  0  0  0  0
   30.6220   36.9010   31.4050 N   0  0  0  0  0  0  0  0  0  0  0  0
   32.7230   36.3450   30.3210 O   0  0  0  0  0  0  0  0  0  0  0  0
   34.5680   39.4680   30.6350 C   0  0  0  0  0  0  0  0  0  0  0  0
   36.4000   38.2750   29.5490 C   0  0  0  0  0  0  0  0  0  0  0  0
   35.7700   39.4270   29.9530 C   0  0  0  0  0  0  0  0  0  0  0  0
   36.1060   37.0330   29.4580 N   0  0  0  0  0  0  0  0  0  0  0  0
   34.8180   36.6880   29.6650 C   0  0  0  0  0  0  0  0  0  0  0  0
  1  5  1  0
  2  7  1  0
  2  3  1  0
  4 10  1  0
  6  5  1  0
  7  1  1  0
  8  3  1  0
  9 10  1  0
 10  8  2  0
 11  9  2  0
 11 12  1  0
 12  2  2  0
M  END
$$$$

     RDKit          3D

  1  0  0  0  0  0  0  0  0  0999 V2000
   44.0320   49.4120   12.1440 C   0  0  0  0  0  0  0  0  0  0  0  0
M  END
$$$$

     RDKit          3D

 13 13  0  0  0  0  0  0  0  0999 V2000
   36.5720   39.7720   28.4410 C   0  0  0  0  0  0  0  0  0  0  0  0
   33.1670   36.6960   31.8430 O   0  0  0  0  0  0  0  0  0  0  0  0
   35.6960   38.7640   29.1820 C   0  0  0  0  0  0  0  0  0  0  0  0
   30.4190   36.1800   31.2620 O   0  0  0  0  0  0  0  0  0  0  0  0
   35.3950   37.4800   31.1900 C   0  0  0  0  0  0  0  0  0  0  0  0
   30.4200   34.1120   32.4140 C   0  0  0  0  0  0  0  0  0  0  0  0
   33.4740   38.0390   29.9440 C   0  0  0  0  0  0  0  0  0  0  0  0
   32.0970   38.1450   29.8510 O   0  0  0  0  0  0  0  0  0  0  0  0
   36.2130   37.9080   30.0890 C   0  0  0  0  0  0  0  0  0  0  0  0
   34.2430   38.8460   29.0210 C   0  0  0  0  0  0  0  0  0  0  0  0
   34.0410   37.3180   30.9500 C   0  0  0  0  0  0  0  0  0  0  0  0
   31.2950   35.2790   31.8970 C   0  0  0  0  0  0  0  0  0  0  0  0
   32.6960   35.4080   31.4340 C   0  0  0  0  0  0  0  0  0  0  0  0
  1  3  1  0
  3  9  1  0
  4 12  1  0
  7 11  2  0
  8  7  1  0
  9  5  2  0
 10  3  2  0
 10  7  1  0
 11  5  1  0
 11  2  1  0
 12  6  1  0
 13  2  1  0
 13 12  1  0
M  END
$$$$

     RDKit          3D

 22 21  0  0  0  0  0  0  0  0999 V2000
   31.5510   36.6960   31.4100 C   0  0  0  0  0  0  0  0  0  0  0  0
   37.0440   41.2070   27.3900 C   0  0  0  0  0  0  0  0  0  0  0  0
   36.1250   39.1970   28.1480 O   0  0  0  0  0  0  0  0  0  0  0  0
   32.6740   37.2060   30.9000 C   0  0  0  0  0  0  0  0  0  0  0  0
   33.8050   36.2280   30.6960 C   0  0  0  0  0  0  0  0  0  0  0  0
   31.7190   35.6530   32.3260 C   0  0  0  0  0  0  0  0  0  0  0  0
   30.9440   34.3630   34.0910 C   0  0  0  0  0  0  0  0  0  0  0  0
   37.8520   40.1020   26.9790 O   0  0  0  0  0  0  0  0  0  0  0  0
   38.7350   44.4360   28.9140 C   0  0  0  0  0  0  0  0  0  0  0  0
   35.6690   40.9730   29.5230 O   0  0  0  0  0  0  0  0  0  0  0  0
   30.7390   34.7960   32.6920 C   0  0  0  0  0  0  0  0  0  0  0  0
   38.0040   42.0310   28.3760 C   0  0  0  0  0  0  0  0  0  0  0  0
   35.6640   38.3320   28.7170 C   0  0  0  0  0  0  0  0  0  0  0  0
   35.9590   36.1810   30.0960 O   0  0  0  0  0  0  0  0  0  0  0  0
   29.1420   34.6250   35.6100 O   0  0  0  0  0  0  0  0  0  0  0  0
   37.5440   43.4390   28.8300 C   0  0  0  0  0  0  0  0  0  0  0  0
   34.5910   37.8050   29.2850 N   0  0  0  0  0  0  0  0  0  0  0  0
   35.8720   40.6260   28.1850 C   0  0  0  0  0  0  0  0  0  0  0  0
   32.6630   35.4490   33.0530 O   0  0  0  0  0  0  0  0  0  0  0  0
   34.8410   36.7290   30.0220 C   0  0  0  0  0  0  0  0  0  0  0  0
   29.5770   34.6080   34.5350 C   0  0  0  0  0  0  0  0  0  0  0  0
   28.7570   35.1170   33.9230 O   0  0  0  0  0  0  0  0  0  0  0  0
  1  6  1  0
  2  8  1  0
  2 18  1  0
  2 12  1  0
  3 18  1  0
  3 13  1  0
  4  1  1  0
  5  4  1  0
  6 11  1  0
  6 19  2  0
  7 21  1  0
 11  7  1  0
 12 16  1  0
 13 17  1  0
 16  9  1  0
 17 20  1  0
 18 10  1  0
 20 14  2  0
 20  5  1  0
 21 15  1  0
 22 21  2  0
M  END
$$$$

     RDKit          3D

 16 17  0  0  0  0  0  0  0  0999 V2000
   30.2960   36.3210   31.4440 C   0  0  0  0  0  0  0  0  0  0  0  0
   35.5090   40.2410   28.2790 C   0  0  0  0  0  0  0  0  0  0  0  0
   36.2550   39.4340   30.4410 O   0  0  0  0  0  0  0  0  0  0  0  0
   34.2920   37.4820   30.7180 C   0  0  0  0  0  0  0  0  0  0  0  0
   33.8720   36.5770   31.8630 C   0  0  0  0  0  0  0  0  0  0  0  0
   34.3230   38.2660   29.4350 C   0  0  0  0  0  0  0  0  0  0  0  0
   31.3770   35.9620   32.4910 C   0  0  0  0  0  0  0  0  0  0  0  0
   36.1720   42.4330   27.4630 C   0  0  0  0  0  0  0  0  0  0  0  0
   35.4200   39.2960   29.4380 C   0  0  0  0  0  0  0  0  0  0  0  0
   34.7690   40.9800   26.1250 C   0  0  0  0  0  0  0  0  0  0  0  0
   34.9350   39.9750   27.0580 C   0  0  0  0  0  0  0  0  0  0  0  0
   35.2190   42.2830   26.3720 C   0  0  0  0  0  0  0  0  0  0  0  0
   31.5500   36.2490   33.9190 C   0  0  0  0  0  0  0  0  0  0  0  0
   36.2520   41.4330   28.4640 C   0  0  0  0  0  0  0  0  0  0  0  0
   30.3150   34.9510   32.0550 C   0  0  0  0  0  0  0  0  0  0  0  0
   32.6290   35.7220   31.6140 C   0  0  0  0  0  0  0  0  0  0  0  0
  1 15  1  0
  1  7  1  0
  2 14  1  0
  2  9  1  0
  4  5  1  0
  6  9  1  0
  6  4  1  0
  7 13  1  0
  8 14  2  0
  9  3  1  0
 10 12  2  0
 10 11  1  0
 11  2  2  0
 12  8  1  0
 15  7  1  0
 16  5  1  0
 16  7  1  0
M  END
$$$$

     RDKit          3D

 10 10  0  0  0  0  0  0  0  0999 V2000
   34.2740   40.0160   29.3870 C   0  0  0  0  0  0  0  0  0  0  0  0
   33.4310   39.0120   29.6280 O   0  0  0  0  0  0  0  0  0  0  0  0
   34.5290   40.0940   27.1310 C   0  0  0  0  0  0  0  0  0  0  0  0
   36.6200   42.3480   30.3440 O   0  0  0  0  0  0  0  0  0  0  0  0
   35.2220   40.0920   25.7890 C   0  0  0  0  0  0  0  0  0  0  0  0
   34.4070   41.3770   29.7320 O   0  0  0  0  0  0  0  0  0  0  0  0
   36.3180   40.8760   28.7340 N   0  0  0  0  0  0  0  0  0  0  0  0
   35.3630   39.8950   28.3530 C   0  0  0  0  0  0  0  0  0  0  0  0
   35.7730   41.7380   29.6080 C   0  0  0  0  0  0  0  0  0  0  0  0
   36.2690   41.0420   25.7210 O   0  0  0  0  0  0  0  0  0  0  0  0
  1  2  2  0
  1  6  1  0
  5  3  1  0
  7  9  1  0
  8  3  1  0
  8  7  1  0
  8  1  1  0
  9  6  1  0
  9  4  2  0
 10  5  1  0
M  END
$$$$

     RDKit          3D

 11 10  0  0  0  0  0  0  0  0999 V2000
   30.6450   35.2170   31.2620 O   0  0  0  0  0  0  0  0  0  0  0  0
   36.6500   39.0810   30.4310 O   0  0  0  0  0  0  0  0  0  0  0  0
   32.9000   36.2030   31.1070 C   0  0  0  0  0  0  0  0  0  0  0  0
   33.6120   37.2990   30.3790 C   0  0  0  0  0  0  0  0  0  0  0  0
   34.9620   39.5520   29.3830 O   0  0  0  0  0  0  0  0  0  0  0  0
   31.4340   36.1650   30.5830 C   0  0  0  0  0  0  0  0  0  0  0  0
   35.1190   37.2560   30.1600 C   0  0  0  0  0  0  0  0  0  0  0  0
   33.3630   35.0890   31.5210 O   0  0  0  0  0  0  0  0  0  0  0  0
   35.5530   38.7060   29.9950 C   0  0  0  0  0  0  0  0  0  0  0  0
   32.7890   38.2410   29.7020 C   0  0  0  0  0  0  0  0  0  0  0  0
   32.0970   38.8850   29.1510 O   0  0  0  0  0  0  0  0  0  0  0  0
  3  8  2  0
  4  3  1  0
  5  9  2  0
  6  3  1  0
  6  1  1  0
  7  4  1  0
  9  7  1  0
  9  2  1  0
 10  4  2  0
 11 10  2  0
M  END
$$$$

     RDKit          3D

 23 25  0  0  0  0  0  0  0  0999 V2000
   35.3000   35.6950   31.1430 N   0  0  0  0  0  0  0  0  0  0  0  0
   32.3320   35.2200   33.4180 C   0  0  0  0  0  0  0  0  0  0  0  0
   34.1300   35.7400   31.8160 C   0  0  0  0  0  0  0  0  0  0  0  0
   37.8100   38.8480   26.9140 N   0  0  0  0  0  0  0  0  0  0  0  0
   38.0950   37.7770   27.8720 C   0  0  0  0  0  0  0  0  0  0  0  0
   29.8080   33.7330   36.0370 C   0  0  0  0  0  0  0  0  0  0  0  0
   31.0130   35.8850   36.8130 C   0  0  0  0  0  0  0  0  0  0  0  0
   30.2650   35.7450   38.0790 C   0  0  0  0  0  0  0  0  0  0  0  0
   35.9840   38.8180   28.2130 C   0  0  0  0  0  0  0  0  0  0  0  0
   32.3050   33.2540   34.6360 O   0  0  0  0  0  0  0  0  0  0  0  0
   32.0900   36.5310   33.3080 C   0  0  0  0  0  0  0  0  0  0  0  0
   35.4240   36.8030   30.3200 C   0  0  0  0  0  0  0  0  0  0  0  0
   31.7860   34.4460   34.5870 C   0  0  0  0  0  0  0  0  0  0  0  0
   32.3940   37.3700   32.2090 C   0  0  0  0  0  0  0  0  0  0  0  0
   33.4770   36.9920   31.3820 C   0  0  0  0  0  0  0  0  0  0  0  0
   36.5670   36.7670   29.4810 N   0  0  0  0  0  0  0  0  0  0  0  0
   30.7440   34.8330   35.5050 C   0  0  0  0  0  0  0  0  0  0  0  0
   37.0390   39.8050   27.7400 C   0  0  0  0  0  0  0  0  0  0  0  0
   36.8840   37.6840   28.5860 C   0  0  0  0  0  0  0  0  0  0  0  0
   34.3160   37.6060   30.4400 N   0  0  0  0  0  0  0  0  0  0  0  0
   28.3170   34.6930   37.7420 O   0  0  0  0  0  0  0  0  0  0  0  0
   29.0050   33.9790   37.1330 C   0  0  0  0  0  0  0  0  0  0  0  0
   33.5590   34.8720   32.7120 C   0  0  0  0  0  0  0  0  0  0  0  0
  1  3  1  0
  2 13  1  0
  3 23  1  0
  4 18  1  0
  4  5  1  0
  5 19  1  0
  6 22  1  0
  7  8  1  0
  9 19  1  0
 11  2  1  0
 12 20  2  0
 12  1  2  0
 13 10  1  0
 13 17  1  0
 14 11  2  0
 15  3  2  0
 15 14  1  0
 16 12  1  0
 17  6  1  0
 17  7  1  0
 18  9  1  0
 19 16  2  3
 20 15  1  0
 22 21  2  0
 23  2  2  0
M  END
$$$$

     RDKit          3D

 20 21  0  0  0  0  0  0  0  0999 V2000
   30.5390   35.4330   35.7210 C   0  0  0  0  0  0  0  0  0  0  0  0
   36.5350   38.7800   28.8680 C   0  0  0  0  0  0  0  0  0  0  0  0
   35.6020   41.1260   28.1090 N   0  0  0  0  0  0  0  0  0  0  0  0
   32.6460   37.5460   30.6940 C   0  0  0  0  0  0  0  0  0  0  0  0
   36.0140   38.1770   27.8190 C   0  0  0  0  0  0  0  0  0  0  0  0
   34.1270   37.1030   30.6250 C   0  0  0  0  0  0  0  0  0  0  0  0
   31.9780   37.0580   31.8990 C   0  0  0  0  0  0  0  0  0  0  0  0
   34.6840   36.2540   31.5620 C   0  0  0  0  0  0  0  0  0  0  0  0
   32.5750   36.0810   32.6550 C   0  0  0  0  0  0  0  0  0  0  0  0
   37.4220   39.8770   29.1290 C   0  0  0  0  0  0  0  0  0  0  0  0
   34.5700   37.9860   28.2850 C   0  0  0  0  0  0  0  0  0  0  0  0
   34.8170   37.7640   29.7160 N   0  0  0  0  0  0  0  0  0  0  0  0
   31.9770   35.5800   33.7390 N   0  0  0  0  0  0  0  0  0  0  0  0
   31.0180   36.1280   34.4630 C   0  0  0  0  0  0  0  0  0  0  0  0
   36.6950   41.2010   29.0100 C   0  0  0  0  0  0  0  0  0  0  0  0
   36.2980   40.2990   26.0190 O   0  0  0  0  0  0  0  0  0  0  0  0
   35.8000   41.2330   26.7230 C   0  0  0  0  0  0  0  0  0  0  0  0
   33.9090   35.6670   32.5630 C   0  0  0  0  0  0  0  0  0  0  0  0
   35.9140   38.3320   30.0440 O   0  0  0  0  0  0  0  0  0  0  0  0
   35.1490   42.1700   26.0580 O   0  0  0  0  0  0  0  0  0  0  0  0
  2 10  1  0
  2 19  1  0
  3 15  1  0
  4  7  1  0
  5 11  1  0
  5  2  1  0
  6  4  2  0
  6  8  1  0
  7  9  2  0
  8 18  2  0
  9 13  1  0
 11 12  1  0
 12 19  1  0
 12  6  1  0
 13 14  2  3
 14  1  1  0
 15 10  1  0
 16 17  2  0
 17  3  1  0
 18  9  1  0
 20 17  1  0
M  END
$$$$

     RDKit          3D

  1  0  0  0  0  0  0  0  0  0999 V2000
   64.0380   -4.4260   43.6160 Cl  0  0  0  0  0  0  0  0  0  0  0  0
M  END
$$$$

     RDKit          3D

 16 17  0  0  0  0  0  0  0  0999 V2000
   39.6810   42.9260   27.6680 S   0  0  0  0  0  0  0  0  0  0  0  0
   34.0400   38.2100   29.7390 N   0  0  0  0  0  0  0  0  0  0  0  0
   32.1620   37.3520   30.4550 C   0  0  0  0  0  0  0  0  0  0  0  0
   38.9790   43.5320   26.4080 C   0  0  0  0  0  0  0  0  0  0  0  0
   36.2050   40.6080   28.6700 C   0  0  0  0  0  0  0  0  0  0  0  0
   38.6990   41.4640   27.7410 C   0  0  0  0  0  0  0  0  0  0  0  0
   37.7860   42.9780   26.2280 C   0  0  0  0  0  0  0  0  0  0  0  0
   33.5670   37.1570   30.6340 C   0  0  0  0  0  0  0  0  0  0  0  0
   31.4080   36.8250   29.2570 C   0  0  0  0  0  0  0  0  0  0  0  0
   34.7640   39.2240   30.1170 C   0  0  0  0  0  0  0  0  0  0  0  0
   36.4560   41.3190   27.4510 C   0  0  0  0  0  0  0  0  0  0  0  0
   35.1300   41.0750   27.9690 N   0  0  0  0  0  0  0  0  0  0  0  0
   34.2200   39.9370   30.5660 O   0  0  0  0  0  0  0  0  0  0  0  0
   37.4900   42.0250   27.0910 N   0  0  0  0  0  0  0  0  0  0  0  0
   39.5780   44.6460   25.9430 N   0  0  0  0  0  0  0  0  0  0  0  0
   36.2040   39.4650   29.5040 C   0  0  0  0  0  0  0  0  0  0  0  0
  1  6  1  0
  2 10  1  0
  2  8  1  0
  3  8  1  0
  4 15  1  0
  4  1  1  0
  5 16  1  0
  7  4  1  0
  9  3  1  0
 10 13  2  0
 11 12  1  0
 11  5  1  0
 12  5  1  0
 14  7  1  0
 14 11  1  0
 14  6  1  0
 16 10  1  0
M  END
$$$$

     RDKit          3D

  6  5  0  0  0  0  0  0  0  0999 V2000
   35.7910   40.5510   27.8920 C   0  0  0  0  0  0  0  0  0  0  0  0
   36.5260   40.6310   26.7070 O   0  0  0  0  0  0  0  0  0  0  0  0
   37.0200   41.2190   29.3340 O   0  0  0  0  0  0  0  0  0  0  0  0
   33.7120   40.5570   26.6290 O   0  0  0  0  0  0  0  0  0  0  0  0
   34.4970   41.2480   27.8690 C   0  0  0  0  0  0  0  0  0  0  0  0
   36.2310   40.1590   28.9810 C   0  0  0  0  0  0  0  0  0  0  0  0
  1  6  1  0
  2  1  1  0
  4  5  1  0
  5  1  1  0
  6  3  1  0
M  END
$$$$

     RDKit          3D

 21 22  0  0  0  0  0  0  0  0999 V2000
   38.3360   42.8780   29.2230 C   0  0  0  0  0  0  0  0  0  0  0  0
   35.6410   39.8930   29.5660 C   0  0  0  0  0  0  0  0  0  0  0  0
   33.2720   39.4840   28.8230 C   0  0  0  0  0  0  0  0  0  0  0  0
   35.7360   37.2880   30.7720 C   0  0  0  0  0  0  0  0  0  0  0  0
   32.3300   35.1950   32.2390 C   0  0  0  0  0  0  0  0  0  0  0  0
   37.8160   43.3700   28.0930 O   0  0  0  0  0  0  0  0  0  0  0  0
   38.0530   40.9230   27.6010 N   0  0  0  0  0  0  0  0  0  0  0  0
   37.5910   41.7380   29.8200 C   0  0  0  0  0  0  0  0  0  0  0  0
   32.6150   34.0380   33.0890 C   0  0  0  0  0  0  0  0  0  0  0  0
   33.4520   36.0470   31.7410 C   0  0  0  0  0  0  0  0  0  0  0  0
   33.9700   33.5970   33.2190 C   0  0  0  0  0  0  0  0  0  0  0  0
   33.4000   37.1540   30.8140 C   0  0  0  0  0  0  0  0  0  0  0  0
   34.7110   35.6630   32.0780 C   0  0  0  0  0  0  0  0  0  0  0  0
   34.5880   38.8340   29.2150 C   0  0  0  0  0  0  0  0  0  0  0  0
   39.4170   43.1630   29.6830 O   0  0  0  0  0  0  0  0  0  0  0  0
   37.9490   40.5330   28.9790 C   0  0  0  0  0  0  0  0  0  0  0  0
   36.9370   39.5330   29.2170 C   0  0  0  0  0  0  0  0  0  0  0  0
   34.9540   34.4910   32.8300 C   0  0  0  0  0  0  0  0  0  0  0  0
   31.0200   35.4580   31.9210 O   0  0  0  0  0  0  0  0  0  0  0  0
   34.5040   37.7640   30.3090 C   0  0  0  0  0  0  0  0  0  0  0  0
   35.7760   36.4010   31.6920 N   0  0  0  0  0  0  0  0  0  0  0  0
  1 15  1  0
  1  8  1  0
  4 21  1  0
  5  9  2  0
  6  1  2  0
  9 11  1  0
 10 13  1  0
 10  5  1  0
 12 10  2  0
 13 18  1  0
 14  3  1  0
 14  2  1  0
 14 20  1  0
 16  7  1  0
 16 17  1  0
 16  8  1  0
 17  2  1  0
 18 11  2  0
 19  5  1  0
 20  4  2  0
 20 12  1  0
 21 13  2  0
M  END
$$$$

     RDKit          3D

 12 12  0  0  0  0  0  0  0  0999 V2000
   32.1120   36.3210   30.1160 N   0  0  0  0  0  0  0  0  0  0  0  0
   36.7310   39.1880   30.1810 C   0  0  0  0  0  0  0  0  0  0  0  0
   36.6790   41.4280   29.4400 C   0  0  0  0  0  0  0  0  0  0  0  0
   35.9250   40.1800   29.6860 C   0  0  0  0  0  0  0  0  0  0  0  0
   36.0020   42.7120   29.5980 C   0  0  0  0  0  0  0  0  0  0  0  0
   33.1190   36.6600   30.1430 C   0  0  0  0  0  0  0  0  0  0  0  0
   35.3390   37.3070   30.6840 C   0  0  0  0  0  0  0  0  0  0  0  0
   38.0400   41.3700   29.7400 N   0  0  0  0  0  0  0  0  0  0  0  0
   33.8430   38.9730   29.6540 C   0  0  0  0  0  0  0  0  0  0  0  0
   34.5630   40.0750   29.4750 C   0  0  0  0  0  0  0  0  0  0  0  0
   36.5420   37.9470   30.6610 C   0  0  0  0  0  0  0  0  0  0  0  0
   34.1930   37.7710   30.1480 C   0  0  0  0  0  0  0  0  0  0  0  0
  1  6  2  0
  2 11  1  0
  3  5  1  0
  3  4  1  0
  3  8  1  0
  4  2  2  0
  6 12  1  0
  9 12  1  0
 10  9  2  0
 10  4  1  0
 11  7  1  0
 12  7  2  0
M  END
$$$$
