
     RDKit          3D

 27 26  0  0  0  0  0  0  0  0999 V2000
   36.1900   33.3160   32.2730 C   0  0  0  0  0  0  0  0  0  0  0  0
   34.5380   38.1730   20.2270 C   0  0  0  0  0  0  0  0  0  0  0  0
   36.6370   33.7870   30.9220 N   0  0  0  0  0  0  0  0  0  0  0  0
   35.1930   36.0910   25.3650 C   0  0  0  0  0  0  0  0  0  0  0  0
   36.2070   33.2160   34.6330 C   0  0  0  0  0  0  0  0  0  0  0  0
   35.3920   39.8640   18.4280 C   0  0  0  0  0  0  0  0  0  0  0  0
   34.6280   33.4710   29.6680 O   0  0  0  0  0  0  0  0  0  0  0  0
   35.2950   37.0800   21.0190 N   0  0  0  0  0  0  0  0  0  0  0  0
   36.0490   34.5970   28.1090 C   0  0  0  0  0  0  0  0  0  0  0  0
   35.6240   34.6300   25.6020 C   0  0  0  0  0  0  0  0  0  0  0  0
   35.1820   34.0830   26.9660 C   0  0  0  0  0  0  0  0  0  0  0  0
   35.1670   35.7850   20.2080 C   0  0  0  0  0  0  0  0  0  0  0  0
   34.8800   30.3130   35.4590 O   0  0  0  0  0  0  0  0  0  0  0  0
   35.9850   33.8650   29.4930 C   0  0  0  0  0  0  0  0  0  0  0  0
   36.4440   40.4010   17.4660 C   0  0  0  0  0  0  0  0  0  0  0  0
   38.4570   32.1560   35.0710 O   0  0  0  0  0  0  0  0  0  0  0  0
   35.6350   38.5140   19.1070 C   0  0  0  0  0  0  0  0  0  0  0  0
   35.3840   36.4720   23.8430 C   0  0  0  0  0  0  0  0  0  0  0  0
   35.2370   40.8960   19.4390 O   0  0  0  0  0  0  0  0  0  0  0  0
   37.5170   31.3390   35.0560 C   0  0  0  0  0  0  0  0  0  0  0  0
   36.6390   31.5620   34.1620 O   0  0  0  0  0  0  0  0  0  0  0  0
   35.3170   31.2960   35.0040 C   0  0  0  0  0  0  0  0  0  0  0  0
   36.8950   33.8000   33.5000 C   0  0  0  0  0  0  0  0  0  0  0  0
   37.4520   29.9430   35.2960 N   0  0  0  0  0  0  0  0  0  0  0  0
   34.7490   36.8890   22.4190 C   0  0  0  0  0  0  0  0  0  0  0  0
   36.3380   41.2960   16.9600 C   0  0  0  0  0  0  0  0  0  0  0  0
   35.0540   32.5060   34.8470 C   0  0  0  0  0  0  0  0  0  0  0  0
  1 23  1  0
  2  8  1  0
  3  1  1  0
  4 10  1  0
  5 27  1  0
  6 17  1  0
  6 19  1  0
  8 25  1  0
  9 14  1  0
 10 11  1  0
 11  9  1  0
 12  8  1  0
 14  7  2  0
 14  3  1  0
 15  6  1  0
 17  2  1  0
 18  4  1  0
 20 16  2  0
 20 24  1  0
 21 22  1  0
 21 20  1  0
 22 13  2  0
 23  5  1  0
 25 18  2  3
 26 15  2  0
 27 22  1  0
M  END
$$$$

     RDKit          3D

 19 19  0  0  0  0  0  0  0  0999 V2000
   39.4230   40.5110   23.3040 C   0  0  0  0  0  0  0  0  0  0  0  0
   35.8270   34.6240   25.7130 C   0  0  0  0  0  0  0  0  0  0  0  0
   36.9480   33.8830   28.4760 S   0  0  0  0  0  0  0  0  0  0  0  0
   38.1540   36.5020   29.1050 O   0  0  0  0  0  0  0  0  0  0  0  0
   37.2420   37.8510   25.7160 C   0  0  0  0  0  0  0  0  0  0  0  0
   38.6360   38.5190   27.4410 O   0  0  0  0  0  0  0  0  0  0  0  0
   38.6050   39.3150   22.9680 C   0  0  0  0  0  0  0  0  0  0  0  0
   35.4000   33.6780   26.4360 N   0  0  0  0  0  0  0  0  0  0  0  0
   38.0950   38.9180   25.1320 C   0  0  0  0  0  0  0  0  0  0  0  0
   38.7680   36.9750   23.8880 O   0  0  0  0  0  0  0  0  0  0  0  0
   37.7390   37.5320   27.0470 C   0  0  0  0  0  0  0  0  0  0  0  0
   38.6850   38.3310   23.8710 C   0  0  0  0  0  0  0  0  0  0  0  0
   35.5950   35.1590   24.2430 N   0  0  0  0  0  0  0  0  0  0  0  0
   35.5360   33.5940   27.6620 C   0  0  0  0  0  0  0  0  0  0  0  0
   36.4840   35.2240   26.3920 N   0  0  0  0  0  0  0  0  0  0  0  0
   38.2800   40.0830   22.7020 O   0  0  0  0  0  0  0  0  0  0  0  0
   36.9140   35.2470   27.4990 C   0  0  0  0  0  0  0  0  0  0  0  0
   37.6640   36.4720   28.0100 C   0  0  0  0  0  0  0  0  0  0  0  0
   34.6850   32.1850   28.9580 S   0  0  0  0  0  0  0  0  0  0  0  0
  2 15  1  0
  2  8  2  0
  5 11  1  0
  7 12  1  0
  8 14  1  0
  9  5  1  0
 11  6  1  0
 11 18  1  0
 12 10  1  0
 12  9  1  0
 13  2  1  0
 14  3  1  0
 14 19  2  0
 15 17  1  0
 16  7  1  0
 16  1  1  0
 17 18  1  0
 17  3  1  0
 18  4  2  0
M  END
$$$$

     RDKit          3D

  1  0  0  0  0  0  0  0  0  0999 V2000
  121.0730  335.1180 -685.2790 Br  0  0  0  0  0  0  0  0  0  0  0  0
M  END
$$$$

     RDKit          3D

 12 12  0  0  0  0  0  0  0  0999 V2000
   35.0410   35.7310   30.4560 C   0  0  0  0  0  0  0  0  0  0  0  0
   34.5980   34.9770   26.7170 C   0  0  0  0  0  0  0  0  0  0  0  0
   34.3360   34.4020   30.1470 S   0  0  0  0  0  0  0  0  0  0  0  0
   35.0750   33.9350   27.5650 C   0  0  0  0  0  0  0  0  0  0  0  0
   34.1800   35.8340   24.4970 C   0  0  0  0  0  0  0  0  0  0  0  0
   32.7930   34.0410   30.8140 C   0  0  0  0  0  0  0  0  0  0  0  0
   33.8810   37.3870   26.4660 C   0  0  0  0  0  0  0  0  0  0  0  0
   34.7550   34.9350   25.3340 C   0  0  0  0  0  0  0  0  0  0  0  0
   34.8970   35.6640   22.8250 Br  0  0  0  0  0  0  0  0  0  0  0  0
   33.7310   36.0770   27.3350 C   0  0  0  0  0  0  0  0  0  0  0  0
   34.5400   33.5910   28.6980 C   0  0  0  0  0  0  0  0  0  0  0  0
   33.7610   37.0070   25.0710 N   0  0  0  0  0  0  0  0  0  0  0  0
  2 10  1  0
  2  4  1  0
  3  1  2  0
  3  6  1  0
  4 11  1  0
  5  9  1  0
  5 12  1  0
  5  8  1  0
  7 10  1  0
  8  2  2  0
 11  3  1  0
 12  7  1  0
M  END
$$$$

     RDKit          3D

 13 13  0  0  0  0  0  0  0  0999 V2000
   35.8370   37.0390   23.0080 C   0  0  0  0  0  0  0  0  0  0  0  0
   37.0350   37.3020   23.6260 N   0  0  0  0  0  0  0  0  0  0  0  0
   38.2610   36.7010   24.2340 C   0  0  0  0  0  0  0  0  0  0  0  0
   38.9170   36.4680   29.0980 C   0  0  0  0  0  0  0  0  0  0  0  0
   38.9900   36.4610   31.4880 C   0  0  0  0  0  0  0  0  0  0  0  0
   39.2430   35.7820   30.2390 N   0  0  0  0  0  0  0  0  0  0  0  0
   38.5980   36.7510   26.7800 C   0  0  0  0  0  0  0  0  0  0  0  0
   38.6580   35.7140   27.8550 C   0  0  0  0  0  0  0  0  0  0  0  0
   36.1200   36.2030   23.8880 C   0  0  0  0  0  0  0  0  0  0  0  0
   38.1500   35.7810   32.2440 N   0  0  0  0  0  0  0  0  0  0  0  0
   37.8470   36.1840   25.5910 C   0  0  0  0  0  0  0  0  0  0  0  0
   39.3970   37.0850   31.0920 N   0  0  0  0  0  0  0  0  0  0  0  0
   37.3370   38.8390   23.5960 C   0  0  0  0  0  0  0  0  0  0  0  0
  1  2  1  0
  1  9  1  0
  2  9  1  0
  2  3  1  0
  3 11  1  0
  4  6  1  0
  5 10  1  0
  6  5  2  3
  7  8  1  0
  8  4  1  0
 11  7  1  0
 12  5  1  0
 13  2  1  0
M  END
$$$$

     RDKit          3D

 18 19  0  0  0  0  0  0  0  0999 V2000
   35.3730   35.5280   24.1960 C   0  0  0  0  0  0  0  0  0  0  0  0
   37.2650   37.4880   24.2620 C   0  0  0  0  0  0  0  0  0  0  0  0
   41.5260   39.5800   25.8770 C   0  0  0  0  0  0  0  0  0  0  0  0
   35.9390   36.8490   24.7810 C   0  0  0  0  0  0  0  0  0  0  0  0
   36.5630   34.3580   29.9850 O   0  0  0  0  0  0  0  0  0  0  0  0
   36.5680   34.1900   26.0080 C   0  0  0  0  0  0  0  0  0  0  0  0
   40.3860   39.6920   24.8720 C   0  0  0  0  0  0  0  0  0  0  0  0
   36.9940   37.1130   25.6830 C   0  0  0  0  0  0  0  0  0  0  0  0
   39.2870   38.7440   25.0810 C   0  0  0  0  0  0  0  0  0  0  0  0
   35.2720   34.4900   25.2160 C   0  0  0  0  0  0  0  0  0  0  0  0
   34.0310   35.1170   28.3860 C   0  0  0  0  0  0  0  0  0  0  0  0
   34.2720   35.6810   29.6870 C   0  0  0  0  0  0  0  0  0  0  0  0
   35.5380   33.2960   28.1810 C   0  0  0  0  0  0  0  0  0  0  0  0
   38.7170   37.9900   24.0820 C   0  0  0  0  0  0  0  0  0  0  0  0
   35.4600   33.5220   29.6550 C   0  0  0  0  0  0  0  0  0  0  0  0
   35.4830   35.0420   26.4600 C   0  0  0  0  0  0  0  0  0  0  0  0
   35.6910   32.2390   30.4020 C   0  0  0  0  0  0  0  0  0  0  0  0
   34.8590   34.5620   27.6410 C   0  0  0  0  0  0  0  0  0  0  0  0
  2 14  1  0
  2  4  1  0
  2  8  1  0
  4  1  1  0
  4  8  1  0
  6 16  1  0
  7  9  1  0
  7  3  1  0
 10  1  1  0
 10  6  1  0
 10 16  1  0
 11 12  1  0
 13 15  1  0
 14  9  1  0
 15  5  1  0
 15 17  1  0
 16 18  1  0
 18 13  1  0
 18 11  1  0
M  END
$$$$

     RDKit          3D

 13 13  0  0  0  0  0  0  0  0999 V2000
   35.1780   38.6790   21.5470 C   0  0  0  0  0  0  0  0  0  0  0  0
   35.3610   37.5200   25.2140 O   0  0  0  0  0  0  0  0  0  0  0  0
   34.2170   35.2800   28.7450 C   0  0  0  0  0  0  0  0  0  0  0  0
   35.6170   36.6740   22.8920 C   0  0  0  0  0  0  0  0  0  0  0  0
   34.6980   34.9010   26.4080 C   0  0  0  0  0  0  0  0  0  0  0  0
   34.9500   34.8320   24.8130 S   0  0  0  0  0  0  0  0  0  0  0  0
   34.6390   33.5610   27.0880 C   0  0  0  0  0  0  0  0  0  0  0  0
   34.4650   35.3170   21.3610 O   0  0  0  0  0  0  0  0  0  0  0  0
   35.3400   36.4870   24.3890 C   0  0  0  0  0  0  0  0  0  0  0  0
   34.1730   35.9460   27.3900 C   0  0  0  0  0  0  0  0  0  0  0  0
   34.7930   37.8780   22.6820 O   0  0  0  0  0  0  0  0  0  0  0  0
   34.6700   33.8620   28.5680 C   0  0  0  0  0  0  0  0  0  0  0  0
   35.7560   35.7730   21.7650 C   0  0  0  0  0  0  0  0  0  0  0  0
  1 11  1  0
  4 13  1  0
  4  9  1  0
  5  7  1  0
  5 10  1  0
  6  5  1  0
  7 12  1  0
  8 13  1  0
  9  6  1  0
  9  2  2  0
 10  3  1  0
 11  4  1  0
 12  3  1  0
M  END
$$$$

     RDKit          3D

 12 12  0  0  0  0  0  0  0  0999 V2000
   35.7810   38.3220   22.0950 C   0  0  0  0  0  0  0  0  0  0  0  0
   34.8830   35.2160   25.5030 C   0  0  0  0  0  0  0  0  0  0  0  0
   34.4960   35.2650   23.3130 O   0  0  0  0  0  0  0  0  0  0  0  0
   34.9910   35.7570   24.0990 C   0  0  0  0  0  0  0  0  0  0  0  0
   33.6380   37.2350   21.6220 O   0  0  0  0  0  0  0  0  0  0  0  0
   34.5390   36.6700   27.4730 C   0  0  0  0  0  0  0  0  0  0  0  0
   33.9600   35.3350   28.0380 C   0  0  0  0  0  0  0  0  0  0  0  0
   34.8360   37.5520   21.1620 C   0  0  0  0  0  0  0  0  0  0  0  0
   36.4940   37.6200   23.0890 C   0  0  0  0  0  0  0  0  0  0  0  0
   34.0100   35.6750   26.5470 C   0  0  0  0  0  0  0  0  0  0  0  0
   34.8370   38.0510   19.9820 O   0  0  0  0  0  0  0  0  0  0  0  0
   36.2270   36.4110   23.9790 N   0  0  0  0  0  0  0  0  0  0  0  0
  1  9  1  0
  2 10  1  0
  3  4  2  0
  4  2  1  0
  6  7  1  0
  8  5  1  0
  8  1  1  0
  9 12  2  3
 10  6  1  0
 10  7  1  0
 11  8  1  0
 12  4  1  0
M  END
$$$$

     RDKit          3D

  8  7  0  0  0  0  0  0  0  0999 V2000
   37.7680   36.3760   19.7480 O   0  0  0  0  0  0  0  0  0  0  0  0
   37.7670   38.3760   20.4050 O   0  0  0  0  0  0  0  0  0  0  0  0
   36.4290   37.6390   17.7010 N   0  0  0  0  0  0  0  0  0  0  0  0
   35.8670   37.6430   19.0000 C   0  0  0  0  0  0  0  0  0  0  0  0
   34.8460   38.2840   21.1110 O   0  0  0  0  0  0  0  0  0  0  0  0
   33.6770   38.3840   19.2480 O   0  0  0  0  0  0  0  0  0  0  0  0
   37.1820   37.4480   19.8960 C   0  0  0  0  0  0  0  0  0  0  0  0
   34.7630   38.1360   19.8330 C   0  0  0  0  0  0  0  0  0  0  0  0
  1  7  2  0
  3  4  1  0
  4  8  1  0
  4  7  1  0
  6  8  2  0
  7  2  1  0
  8  5  1  0
M  END
$$$$

     RDKit          3D

 10 10  0  0  0  0  0  0  0  0999 V2000
   34.6230   35.1510   26.2550 N   0  0  0  0  0  0  0  0  0  0  0  0
   34.5770   34.9710   22.2180 C   0  0  0  0  0  0  0  0  0  0  0  0
   34.4490   36.0930   21.4130 C   0  0  0  0  0  0  0  0  0  0  0  0
   35.4080   37.2650   26.2830 O   0  0  0  0  0  0  0  0  0  0  0  0
   34.8140   38.3840   20.5700 C   0  0  0  0  0  0  0  0  0  0  0  0
   35.1240   35.1310   23.5130 C   0  0  0  0  0  0  0  0  0  0  0  0
   35.3260   37.8620   23.2960 S   0  0  0  0  0  0  0  0  0  0  0  0
   34.8970   37.3600   21.7040 C   0  0  0  0  0  0  0  0  0  0  0  0
   35.3770   36.3640   24.1630 C   0  0  0  0  0  0  0  0  0  0  0  0
   34.9640   36.2810   25.6480 C   0  0  0  0  0  0  0  0  0  0  0  0
  2  6  1  0
  3  8  1  0
  3  2  2  0
  6  9  2  0
  7  9  1  0
  8  5  1  0
  8  7  1  0
  9 10  1  0
 10  1  1  0
 10  4  2  0
M  END
$$$$

     RDKit          3D

 24 23  0  0  0  0  0  0  0  0999 V2000
   35.7770   34.1590   30.0020 C   0  0  0  0  0  0  0  0  0  0  0  0
   39.1000   33.8640   32.0610 C   0  0  0  0  0  0  0  0  0  0  0  0
   33.3080   37.2240   18.4880 C   0  0  0  0  0  0  0  0  0  0  0  0
   34.0840   35.6750   23.0550 C   0  0  0  0  0  0  0  0  0  0  0  0
   37.2580   35.4260   31.8630 O   0  0  0  0  0  0  0  0  0  0  0  0
   36.8540   33.5780   30.6080 N   0  0  0  0  0  0  0  0  0  0  0  0
   34.3990   35.3630   25.4660 C   0  0  0  0  0  0  0  0  0  0  0  0
   38.5750   35.1710   33.9930 O   0  0  0  0  0  0  0  0  0  0  0  0
   34.5590   35.1680   27.8960 C   0  0  0  0  0  0  0  0  0  0  0  0
   39.4840   34.6500   33.3750 C   0  0  0  0  0  0  0  0  0  0  0  0
   32.5560   37.9660   17.4920 C   0  0  0  0  0  0  0  0  0  0  0  0
   34.7960   35.5970   26.6820 C   0  0  0  0  0  0  0  0  0  0  0  0
   35.0380   38.2570   19.5790 C   0  0  0  0  0  0  0  0  0  0  0  0
   37.6890   34.1150   31.6060 C   0  0  0  0  0  0  0  0  0  0  0  0
   40.5220   33.7970   33.9120 O   0  0  0  0  0  0  0  0  0  0  0  0
   35.7300   34.7010   28.6080 C   0  0  0  0  0  0  0  0  0  0  0  0
   34.7240   39.6130   18.4210 C   0  0  0  0  0  0  0  0  0  0  0  0
   33.1890   35.8260   18.3240 O   0  0  0  0  0  0  0  0  0  0  0  0
   33.3400   36.6990   20.8670 C   0  0  0  0  0  0  0  0  0  0  0  0
   34.5460   36.2330   24.3890 C   0  0  0  0  0  0  0  0  0  0  0  0
   33.7740   37.7850   19.7980 C   0  0  0  0  0  0  0  0  0  0  0  0
   34.3830   36.6990   21.9750 C   0  0  0  0  0  0  0  0  0  0  0  0
   34.7550   34.0000   30.6340 O   0  0  0  0  0  0  0  0  0  0  0  0
   31.2850   37.8630   18.1410 O   0  0  0  0  0  0  0  0  0  0  0  0
  1  6  1  0
  1 23  2  0
  2 10  1  0
  3 18  1  0
  3 21  1  0
  4 20  1  0
  6 14  1  0
  7 12  2  3
  9 16  1  0
 10 15  1  0
 10  8  1  0
 11 24  1  0
 11  3  1  0
 12  9  1  0
 14  5  2  0
 14  2  1  0
 16  1  1  0
 17 13  1  0
 19 22  1  0
 20  7  1  0
 21 13  1  0
 21 19  1  0
 22  4  1  0
M  END
$$$$

     RDKit          3D

 11 11  0  0  0  0  0  0  0  0999 V2000
   34.2800   33.3310   29.8260 C   0  0  0  0  0  0  0  0  0  0  0  0
   33.1090   33.9450   27.9270 O   0  0  0  0  0  0  0  0  0  0  0  0
   35.2350   34.6750   27.7450 N   0  0  0  0  0  0  0  0  0  0  0  0
   35.7980   35.6920   22.9270 C   0  0  0  0  0  0  0  0  0  0  0  0
   34.6270   36.8000   24.6580 C   0  0  0  0  0  0  0  0  0  0  0  0
   34.9070   35.7080   25.5590 C   0  0  0  0  0  0  0  0  0  0  0  0
   34.2830   33.9460   28.4200 C   0  0  0  0  0  0  0  0  0  0  0  0
   34.6740   35.8780   27.0000 C   0  0  0  0  0  0  0  0  0  0  0  0
   34.8910   36.7430   23.3650 C   0  0  0  0  0  0  0  0  0  0  0  0
   35.5370   34.6610   24.9480 C   0  0  0  0  0  0  0  0  0  0  0  0
   35.8760   34.6140   23.6550 C   0  0  0  0  0  0  0  0  0  0  0  0
  2  7  2  0
  3  7  1  0
  4  9  2  0
  4 11  1  0
  5  6  2  0
  6  8  1  0
  7  1  1  0
  8  3  1  0
  9  5  1  0
 10  6  1  0
 11 10  2  0
M  END
$$$$

     RDKit          3D

  8  8  0  0  0  0  0  0  0  0999 V2000
   33.9990   36.0100   26.8910 O   0  0  0  0  0  0  0  0  0  0  0  0
   33.8810   35.3150   25.6440 C   0  0  0  0  0  0  0  0  0  0  0  0
   35.9860   34.0910   25.8110 O   0  0  0  0  0  0  0  0  0  0  0  0
   34.2190   35.7130   23.3360 C   0  0  0  0  0  0  0  0  0  0  0  0
   33.9290   36.1300   21.9560 C   0  0  0  0  0  0  0  0  0  0  0  0
   33.5610   36.2510   24.5150 C   0  0  0  0  0  0  0  0  0  0  0  0
   35.0900   34.5720   25.1700 C   0  0  0  0  0  0  0  0  0  0  0  0
   35.3220   34.7390   23.6760 C   0  0  0  0  0  0  0  0  0  0  0  0
  2  1  1  0
  4  5  1  0
  4  8  1  0
  4  6  1  0
  6  2  1  0
  7  2  1  0
  7  3  2  0
  8  7  1  0
M  END
$$$$

     RDKit          3D

 23 24  0  0  0  0  0  0  0  0999 V2000
   34.3530   34.4560   28.1640 C   0  0  0  0  0  0  0  0  0  0  0  0
   33.6330   36.2440   20.0840 C   0  0  0  0  0  0  0  0  0  0  0  0
   33.6940   35.5150   21.4200 C   0  0  0  0  0  0  0  0  0  0  0  0
   38.3690   37.2310   25.8610 N   0  0  0  0  0  0  0  0  0  0  0  0
   34.7880   35.5150   26.1830 C   0  0  0  0  0  0  0  0  0  0  0  0
   32.6310   36.0430   29.4950 C   0  0  0  0  0  0  0  0  0  0  0  0
   35.8440   36.5750   21.9570 C   0  0  0  0  0  0  0  0  0  0  0  0
   34.6730   36.4200   19.1290 C   0  0  0  0  0  0  0  0  0  0  0  0
   34.5700   36.3000   22.5330 C   0  0  0  0  0  0  0  0  0  0  0  0
   37.2320   36.5970   26.0750 C   0  0  0  0  0  0  0  0  0  0  0  0
   34.3550   36.5230   25.1000 C   0  0  0  0  0  0  0  0  0  0  0  0
   33.4360   34.8030   29.2310 C   0  0  0  0  0  0  0  0  0  0  0  0
   36.3800   36.8390   27.2920 C   0  0  0  0  0  0  0  0  0  0  0  0
   36.0620   37.8030   21.4110 O   0  0  0  0  0  0  0  0  0  0  0  0
   39.9060   38.7880   26.2330 O   0  0  0  0  0  0  0  0  0  0  0  0
   38.7100   38.4590   26.1030 C   0  0  0  0  0  0  0  0  0  0  0  0
   32.5510   34.8970   30.3900 C   0  0  0  0  0  0  0  0  0  0  0  0
   37.7600   39.2750   26.7410 C   0  0  0  0  0  0  0  0  0  0  0  0
   34.1630   35.6660   23.8690 C   0  0  0  0  0  0  0  0  0  0  0  0
   35.1440   35.7620   27.6350 C   0  0  0  0  0  0  0  0  0  0  0  0
   32.2320   36.2360   19.4680 C   0  0  0  0  0  0  0  0  0  0  0  0
   36.8640   35.3970   25.4570 C   0  0  0  0  0  0  0  0  0  0  0  0
   35.8440   34.7130   25.6250 O   0  0  0  0  0  0  0  0  0  0  0  0
  1 12  1  0
  2  3  1  0
  4 10  1  0
  4 16  1  0
  5 11  1  0
  5 20  1  0
  6 17  1  0
  7  9  1  0
  8  2  1  0
  9  3  1  0
  9 19  1  0
 10 13  1  0
 12  6  1  0
 12 17  1  0
 13 20  1  0
 14  7  1  0
 16 15  2  0
 16 18  1  0
 19 11  1  0
 20  1  1  0
 21  2  1  0
 22 23  1  0
 22 10  2  0
 23  5  1  0
M  END
$$$$

     RDKit          3D

 20 20  0  0  0  0  0  0  0  0999 V2000
   35.7540   32.2160   30.0040 O   0  0  0  0  0  0  0  0  0  0  0  0
   36.8700   33.0140   30.3820 C   0  0  0  0  0  0  0  0  0  0  0  0
   35.4170   34.4200   27.0580 C   0  0  0  0  0  0  0  0  0  0  0  0
   34.4820   32.7750   30.0520 C   0  0  0  0  0  0  0  0  0  0  0  0
   38.5890   38.6540   24.7720 N   0  0  0  0  0  0  0  0  0  0  0  0
   35.2710   36.8400   25.4900 C   0  0  0  0  0  0  0  0  0  0  0  0
   37.3590   32.2060   31.5520 C   0  0  0  0  0  0  0  0  0  0  0  0
   35.2060   36.8210   26.9530 N   0  0  0  0  0  0  0  0  0  0  0  0
   34.4820   33.9150   29.1470 O   0  0  0  0  0  0  0  0  0  0  0  0
   39.5400   38.3180   27.3460 C   0  0  0  0  0  0  0  0  0  0  0  0
   37.6890   38.8920   23.7200 C   0  0  0  0  0  0  0  0  0  0  0  0
   34.5410   32.3300   27.5010 C   0  0  0  0  0  0  0  0  0  0  0  0
   35.5550   35.7790   27.5700 C   0  0  0  0  0  0  0  0  0  0  0  0
   38.0050   37.8980   25.6250 C   0  0  0  0  0  0  0  0  0  0  0  0
   34.9250   33.4920   27.8780 C   0  0  0  0  0  0  0  0  0  0  0  0
   36.4720   38.3520   24.0490 C   0  0  0  0  0  0  0  0  0  0  0  0
   36.5440   37.6200   25.1470 C   0  0  0  0  0  0  0  0  0  0  0  0
   35.9860   33.8730   25.7460 C   0  0  0  0  0  0  0  0  0  0  0  0
   38.6840   37.3830   26.6550 O   0  0  0  0  0  0  0  0  0  0  0  0
   35.2700   38.7740   23.3380 C   0  0  0  0  0  0  0  0  0  0  0  0
  1  4  1  0
  1  2  1  0
  2  7  1  0
  3 18  1  0
  3 13  1  0
  3 15  1  0
  5 14  2  0
  6  8  1  0
  8 13  1  0
  9  4  1  0
 11 16  2  0
 11  5  1  0
 12 15  2  0
 14 19  1  0
 15  9  1  0
 16 17  1  0
 17  6  1  0
 17 14  1  0
 19 10  1  0
 20 16  1  0
M  END
$$$$

     RDKit          3D

 16 16  0  0  0  0  0  0  0  0999 V2000
   36.5860   34.8090   27.0180 C   0  0  0  0  0  0  0  0  0  0  0  0
   39.1250   37.8480   22.7990 C   0  0  0  0  0  0  0  0  0  0  0  0
   38.2870   38.2580   21.8830 O   0  0  0  0  0  0  0  0  0  0  0  0
   36.8800   35.5300   24.7160 C   0  0  0  0  0  0  0  0  0  0  0  0
   38.5240   37.2620   24.0390 C   0  0  0  0  0  0  0  0  0  0  0  0
   40.1880   38.0960   22.7830 O   0  0  0  0  0  0  0  0  0  0  0  0
   37.5840   36.1850   23.7750 C   0  0  0  0  0  0  0  0  0  0  0  0
   35.6260   34.3560   23.0850 C   0  0  0  0  0  0  0  0  0  0  0  0
   37.3890   35.4010   25.9880 N   0  0  0  0  0  0  0  0  0  0  0  0
   35.6050   35.0030   24.4490 C   0  0  0  0  0  0  0  0  0  0  0  0
   39.1480   37.4890   25.1450 C   0  0  0  0  0  0  0  0  0  0  0  0
   35.4970   35.5990   27.5020 C   0  0  0  0  0  0  0  0  0  0  0  0
   34.5140   35.2950   28.3030 C   0  0  0  0  0  0  0  0  0  0  0  0
   35.9960   36.5520   27.9630 O   0  0  0  0  0  0  0  0  0  0  0  0
   34.3530   34.9540   29.3020 O   0  0  0  0  0  0  0  0  0  0  0  0
   33.4330   35.6650   28.6930 O   0  0  0  0  0  0  0  0  0  0  0  0
  1 12  1  0
  2  5  1  0
  3  2  2  0
  4  9  2  3
  5 11  2  0
  6  2  1  0
  7  5  1  0
  7  4  1  0
  8 10  1  0
  9  1  1  0
 10  4  1  0
 12 14  1  0
 12 13  1  0
 13 16  1  0
 13 15  1  0
 16 15  1  0
M  END
$$$$

     RDKit          3D

 13 12  0  0  0  0  0  0  0  0999 V2000
   35.8560   34.5810   22.6920 O   0  0  0  0  0  0  0  0  0  0  0  0
   32.5320   34.9900   30.6270 O   0  0  0  0  0  0  0  0  0  0  0  0
   33.7830   35.3130   30.1040 C   0  0  0  0  0  0  0  0  0  0  0  0
   34.8180   36.1350   25.9520 C   0  0  0  0  0  0  0  0  0  0  0  0
   34.3520   34.5340   27.7350 N   0  0  0  0  0  0  0  0  0  0  0  0
   36.8120   36.6120   22.8070 N   0  0  0  0  0  0  0  0  0  0  0  0
   34.1770   37.1100   23.7390 C   0  0  0  0  0  0  0  0  0  0  0  0
   35.0940   34.7430   26.5620 C   0  0  0  0  0  0  0  0  0  0  0  0
   33.7690   35.3080   28.5680 C   0  0  0  0  0  0  0  0  0  0  0  0
   35.7920   35.8130   22.2550 C   0  0  0  0  0  0  0  0  0  0  0  0
   34.5670   35.9290   24.5760 C   0  0  0  0  0  0  0  0  0  0  0  0
   33.7980   36.0060   28.0360 O   0  0  0  0  0  0  0  0  0  0  0  0
   34.6520   36.7620   22.3520 C   0  0  0  0  0  0  0  0  0  0  0  0
  3  2  1  0
  4  8  1  0
  5  9  1  0
  7 11  1  0
  8  5  1  0
  9  3  1  0
 10 13  1  0
 10  1  1  0
 10  6  1  0
 11  4  1  0
 12  9  2  0
 13  7  1  0
M  END
$$$$

     RDKit          3D

 21 22  0  0  0  0  0  0  0  0999 V2000
   35.4450   32.2090   28.6910 C   0  0  0  0  0  0  0  0  0  0  0  0
   35.3450   34.9410   23.0140 O   0  0  0  0  0  0  0  0  0  0  0  0
   35.6020   34.4420   27.4300 C   0  0  0  0  0  0  0  0  0  0  0  0
   35.5100   37.4010   20.8510 C   0  0  0  0  0  0  0  0  0  0  0  0
   38.7340   36.6510   26.3150 N   0  0  0  0  0  0  0  0  0  0  0  0
   36.3520   32.8740   29.7760 C   0  0  0  0  0  0  0  0  0  0  0  0
   35.8840   32.9390   27.4500 C   0  0  0  0  0  0  0  0  0  0  0  0
   37.7540   37.5790   23.0830 O   0  0  0  0  0  0  0  0  0  0  0  0
   37.6090   36.0720   25.8320 C   0  0  0  0  0  0  0  0  0  0  0  0
   36.3730   35.6500   22.4790 C   0  0  0  0  0  0  0  0  0  0  0  0
   36.1470   36.2080   21.0850 C   0  0  0  0  0  0  0  0  0  0  0  0
   37.2560   36.4670   23.4000 C   0  0  0  0  0  0  0  0  0  0  0  0
   36.3490   38.5070   21.0490 O   0  0  0  0  0  0  0  0  0  0  0  0
   34.5300   33.9200   30.2930 C   0  0  0  0  0  0  0  0  0  0  0  0
   37.5020   35.8950   28.1650 C   0  0  0  0  0  0  0  0  0  0  0  0
   33.4750   33.5720   29.1930 C   0  0  0  0  0  0  0  0  0  0  0  0
   36.7310   35.3910   26.9490 C   0  0  0  0  0  0  0  0  0  0  0  0
   37.4380   35.8590   24.5680 N   0  0  0  0  0  0  0  0  0  0  0  0
   33.8940   32.2990   28.5300 C   0  0  0  0  0  0  0  0  0  0  0  0
   35.6980   34.0710   29.9950 C   0  0  0  0  0  0  0  0  0  0  0  0
   38.4140   36.9860   27.6430 C   0  0  0  0  0  0  0  0  0  0  0  0
  1  6  1  0
  3  7  1  0
  4 13  1  0
  4 11  1  0
  5 21  1  0
  6 20  1  0
  7  1  1  0
  8 12  2  0
  9  5  2  0
  9 17  1  0
 10  2  1  0
 10 12  1  0
 11 10  1  0
 12 18  1  0
 16 14  1  0
 17  3  1  0
 17 15  1  0
 18  9  1  0
 19  1  1  0
 19 16  1  0
 20 14  1  0
 21 15  1  0
M  END
$$$$

     RDKit          3D

  7  6  0  0  0  0  0  0  0  0999 V2000
   34.9150   38.0980   22.0760 C   0  0  0  0  0  0  0  0  0  0  0  0
   35.9160   35.8120   21.6760 C   0  0  0  0  0  0  0  0  0  0  0  0
   34.7040   39.2520   21.3070 C   0  0  0  0  0  0  0  0  0  0  0  0
   33.5940   39.5590   20.5910 C   0  0  0  0  0  0  0  0  0  0  0  0
   35.4660   37.0050   19.9000 O   0  0  0  0  0  0  0  0  0  0  0  0
   34.8330   36.8020   21.3850 C   0  0  0  0  0  0  0  0  0  0  0  0
   35.4090   34.9790   22.8340 C   0  0  0  0  0  0  0  0  0  0  0  0
  2  7  1  0
  3  1  1  0
  4  3  2  0
  6  5  1  0
  6  2  1  0
  6  1  1  0
M  END
$$$$

     RDKit          3D

 12 12  0  0  0  0  0  0  0  0999 V2000
   36.6400   38.1100   24.7080 S   0  0  0  0  0  0  0  0  0  0  0  0
   35.7670   37.0410   25.6610 C   0  0  0  0  0  0  0  0  0  0  0  0
   35.1110   34.8420   24.2430 C   0  0  0  0  0  0  0  0  0  0  0  0
   35.3840   38.1700   21.7500 C   0  0  0  0  0  0  0  0  0  0  0  0
   35.0400   35.6860   25.2780 C   0  0  0  0  0  0  0  0  0  0  0  0
   34.9580   38.0660   20.2790 C   0  0  0  0  0  0  0  0  0  0  0  0
   35.8430   39.5060   21.9700 O   0  0  0  0  0  0  0  0  0  0  0  0
   33.4970   37.6310   20.4570 C   0  0  0  0  0  0  0  0  0  0  0  0
   34.1750   34.8660   23.0290 C   0  0  0  0  0  0  0  0  0  0  0  0
   33.7310   36.1170   20.8040 C   0  0  0  0  0  0  0  0  0  0  0  0
   34.2910   36.0830   22.2310 C   0  0  0  0  0  0  0  0  0  0  0  0
   34.5110   37.4750   22.8070 C   0  0  0  0  0  0  0  0  0  0  0  0
  1  2  1  0
  3  5  1  0
  4  7  1  0
  4 12  1  0
  5  2  1  0
  6  8  1  0
  6  4  1  0
  8 10  1  0
  9  3  1  0
 10 11  1  0
 11 12  1  0
 11  9  1  0
M  END
$$$$
