
     RDKit          3D

 12 12  0  0  0  0  0  0  0  0999 V2000
   38.8750   41.0160   30.1410 O   0  0  0  0  0  0  0  0  0  0  0  0
   37.2540   36.1570   29.6610 C   0  0  0  0  0  0  0  0  0  0  0  0
   37.3950   37.8890   31.1090 C   0  0  0  0  0  0  0  0  0  0  0  0
   37.5900   41.8460   26.4560 C   0  0  0  0  0  0  0  0  0  0  0  0
   37.5600   38.2820   28.3790 C   0  0  0  0  0  0  0  0  0  0  0  0
   38.3540   39.6200   28.3100 C   0  0  0  0  0  0  0  0  0  0  0  0
   36.8010   40.7200   29.7480 O   0  0  0  0  0  0  0  0  0  0  0  0
   38.8530   39.8830   26.9530 C   0  0  0  0  0  0  0  0  0  0  0  0
   37.2760   36.3630   31.1700 C   0  0  0  0  0  0  0  0  0  0  0  0
   37.3670   37.6870   29.6050 C   0  0  0  0  0  0  0  0  0  0  0  0
   38.9880   41.5230   26.9810 C   0  0  0  0  0  0  0  0  0  0  0  0
   37.9720   40.4940   29.4340 C   0  0  0  0  0  0  0  0  0  0  0  0
  2  9  1  0
  3  9  1  0
  4 11  1  0
  5 10  1  0
  6  8  1  0
  6  5  1  0
  6 12  1  0
  8 11  1  0
 10  2  1  0
 10  3  1  0
 12  7  2  0
 12  1  1  0
M  END
$$$$

     RDKit          3D

 20 22  0  0  0  0  0  0  0  0999 V2000
   41.2130   39.6460   24.7130 N   0  0  0  0  0  0  0  0  0  0  0  0
   42.3720   39.6960   27.2080 O   0  0  0  0  0  0  0  0  0  0  0  0
   36.2680   36.8470   30.2090 C   0  0  0  0  0  0  0  0  0  0  0  0
   39.2340   39.4710   25.4230 C   0  0  0  0  0  0  0  0  0  0  0  0
   37.2060   37.7630   28.0910 C   0  0  0  0  0  0  0  0  0  0  0  0
   41.5900   41.5980   27.2830 O   0  0  0  0  0  0  0  0  0  0  0  0
   33.6850   35.1540   31.8390 O   0  0  0  0  0  0  0  0  0  0  0  0
   38.4150   38.5070   26.2050 C   0  0  0  0  0  0  0  0  0  0  0  0
   36.8080   36.7040   25.9550 C   0  0  0  0  0  0  0  0  0  0  0  0
   41.2580   40.3130   27.0360 C   0  0  0  0  0  0  0  0  0  0  0  0
   36.9110   37.9060   29.5210 N   0  0  0  0  0  0  0  0  0  0  0  0
   35.2970   36.7400   32.3960 N   0  0  0  0  0  0  0  0  0  0  0  0
   34.4640   36.0480   31.5400 C   0  0  0  0  0  0  0  0  0  0  0  0
   37.7410   37.5620   25.4050 C   0  0  0  0  0  0  0  0  0  0  0  0
   36.6940   36.7010   27.3480 C   0  0  0  0  0  0  0  0  0  0  0  0
   41.1240   39.2800   27.8710 O   0  0  0  0  0  0  0  0  0  0  0  0
   36.2850   37.4670   31.5840 C   0  0  0  0  0  0  0  0  0  0  0  0
   38.1570   38.6530   27.5590 C   0  0  0  0  0  0  0  0  0  0  0  0
   40.4220   40.2040   25.7610 C   0  0  0  0  0  0  0  0  0  0  0  0
   34.8590   36.4540   30.1550 C   0  0  0  0  0  0  0  0  0  0  0  0
  2 16  1  0
  3 11  1  0
  3 17  1  0
  4 19  1  0
  4  8  1  0
  5 11  1  0
  8 18  2  0
  9 15  1  0
 10  2  1  0
 10  6  1  0
 10 16  1  0
 13  7  2  0
 13 12  1  0
 14  9  2  0
 14  8  1  0
 15  5  2  0
 17 12  1  0
 18  5  1  0
 19  1  1  0
 19 10  1  0
 20  3  1  0
 20 13  1  0
M  END
$$$$

     RDKit          3D

 20 21  0  0  0  0  0  0  0  0999 V2000
   35.8070   40.0560   27.7670 C   0  0  0  0  0  0  0  0  0  0  0  0
   36.0200   41.2520   28.3470 C   0  0  0  0  0  0  0  0  0  0  0  0
   34.2200   36.0150   29.9440 O   0  0  0  0  0  0  0  0  0  0  0  0
   37.5810   37.1100   29.6160 O   0  0  0  0  0  0  0  0  0  0  0  0
   35.9810   33.9740   33.1020 C   0  0  0  0  0  0  0  0  0  0  0  0
   38.0360   39.6730   28.6820 C   0  0  0  0  0  0  0  0  0  0  0  0
   36.3500   37.0590   29.3210 C   0  0  0  0  0  0  0  0  0  0  0  0
   36.1990   35.6210   31.2450 C   0  0  0  0  0  0  0  0  0  0  0  0
   35.6450   37.8060   28.1790 C   0  0  0  0  0  0  0  0  0  0  0  0
   38.3540   41.1580   28.8280 C   0  0  0  0  0  0  0  0  0  0  0  0
   36.8190   38.9380   28.0290 C   0  0  0  0  0  0  0  0  0  0  0  0
   34.9060   36.3720   33.0380 C   0  0  0  0  0  0  0  0  0  0  0  0
   34.7800   39.5510   26.9110 O   0  0  0  0  0  0  0  0  0  0  0  0
   34.8680   38.0690   26.8590 C   0  0  0  0  0  0  0  0  0  0  0  0
   33.6480   38.7620   26.9680 C   0  0  0  0  0  0  0  0  0  0  0  0
   35.3330   35.1300   32.3690 C   0  0  0  0  0  0  0  0  0  0  0  0
   37.6510   38.4060   26.8310 C   0  0  0  0  0  0  0  0  0  0  0  0
   36.6460   32.9790   32.1820 N   0  0  0  0  0  0  0  0  0  0  0  0
   37.2430   41.9170   28.0740 N   0  0  0  0  0  0  0  0  0  0  0  0
   35.4260   36.3150   30.2170 C   0  0  0  0  0  0  0  0  0  0  0  0
  1 11  1  0
  1  2  1  0
  3 20  2  0
  6 10  1  0
  7  4  2  0
  7 20  1  0
  8 16  1  0
  9  7  1  0
 11 17  1  0
 11  9  1  0
 11  6  1  0
 13 15  1  0
 13  1  1  0
 14 15  1  0
 14  9  1  0
 16 12  1  0
 16  5  1  0
 18  5  1  0
 19  2  1  0
 19 10  1  0
 20  8  1  0
M  END
$$$$

     RDKit          3D

 18 19  0  0  0  0  0  0  0  0999 V2000
   33.0470   40.3210   24.9450 O   0  0  0  0  0  0  0  0  0  0  0  0
   34.7240   38.9230   25.7920 C   0  0  0  0  0  0  0  0  0  0  0  0
   36.4900   38.6900   27.3550 C   0  0  0  0  0  0  0  0  0  0  0  0
   33.7560   39.1240   24.5740 C   0  0  0  0  0  0  0  0  0  0  0  0
   36.2730   40.1350   24.2730 O   0  0  0  0  0  0  0  0  0  0  0  0
   36.0710   38.9920   25.0860 C   0  0  0  0  0  0  0  0  0  0  0  0
   33.7830   37.9130   23.7610 O   0  0  0  0  0  0  0  0  0  0  0  0
   37.4200   38.8370   29.7940 C   0  0  0  0  0  0  0  0  0  0  0  0
   36.8790   39.5730   28.5470 C   0  0  0  0  0  0  0  0  0  0  0  0
   38.0600   39.6720   30.6670 O   0  0  0  0  0  0  0  0  0  0  0  0
   37.6540   37.6860   29.8760 O   0  0  0  0  0  0  0  0  0  0  0  0
   36.6480   37.6550   24.9600 O   0  0  0  0  0  0  0  0  0  0  0  0
   37.1320   38.5970   25.9720 C   0  0  0  0  0  0  0  0  0  0  0  0
   38.1700   42.0030   28.6690 C   0  0  0  0  0  0  0  0  0  0  0  0
   36.1470   41.6560   27.7480 O   0  0  0  0  0  0  0  0  0  0  0  0
   35.1270   39.1890   27.1770 O   0  0  0  0  0  0  0  0  0  0  0  0
   38.5540   39.3640   31.9000 O   0  0  0  0  0  0  0  0  0  0  0  0
   37.1580   40.9740   28.2740 C   0  0  0  0  0  0  0  0  0  0  0  0
  2  4  1  0
  2 16  1  0
  3  9  1  0
  4  1  1  0
  6  5  1  0
  6  2  1  0
  6 13  1  0
  7  4  2  0
  8 11  2  0
  8 10  1  0
  9  8  1  0
 10 17  1  0
 12  6  1  0
 13 12  1  0
 13  3  1  0
 15 18  1  0
 16  3  1  0
 18  9  1  0
 18 14  1  0
M  END
$$$$

     RDKit          3D

 22 23  0  0  0  0  0  0  0  0999 V2000
   36.0630   35.8500   29.2950 C   0  0  0  0  0  0  0  0  0  0  0  0
   35.3220   38.3340   25.4040 C   0  0  0  0  0  0  0  0  0  0  0  0
   32.2760   35.7650   31.3790 O   0  0  0  0  0  0  0  0  0  0  0  0
   36.4060   37.3900   25.2650 C   0  0  0  0  0  0  0  0  0  0  0  0
   35.6350   35.5790   26.4920 O   0  0  0  0  0  0  0  0  0  0  0  0
   33.1030   36.9420   30.8610 C   0  0  0  0  0  0  0  0  0  0  0  0
   34.2560   37.3300   27.7330 S   0  0  0  0  0  0  0  0  0  0  0  0
   34.6390   34.9800   30.8430 N   0  0  0  0  0  0  0  0  0  0  0  0
   34.6690   36.4900   29.1980 C   0  0  0  0  0  0  0  0  0  0  0  0
   38.6480   32.8360   29.2970 C   0  0  0  0  0  0  0  0  0  0  0  0
   34.2590   40.3870   24.3170 C   0  0  0  0  0  0  0  0  0  0  0  0
   32.0900   37.2530   29.7560 O   0  0  0  0  0  0  0  0  0  0  0  0
   34.8500   39.5490   25.4650 C   0  0  0  0  0  0  0  0  0  0  0  0
   36.8090   33.6860   30.7270 C   0  0  0  0  0  0  0  0  0  0  0  0
   37.9990   33.7030   29.9960 C   0  0  0  0  0  0  0  0  0  0  0  0
   36.6060   39.8440   24.0150 C   0  0  0  0  0  0  0  0  0  0  0  0
   35.7200   40.8650   23.8620 C   0  0  0  0  0  0  0  0  0  0  0  0
   37.2960   39.0660   23.3330 C   0  0  0  0  0  0  0  0  0  0  0  0
   35.3650   37.0860   26.3390 C   0  0  0  0  0  0  0  0  0  0  0  0
   38.7550   31.5560   30.0420 O   0  0  0  0  0  0  0  0  0  0  0  0
   34.2430   36.4380   30.6440 C   0  0  0  0  0  0  0  0  0  0  0  0
   35.8760   34.8320   30.4110 C   0  0  0  0  0  0  0  0  0  0  0  0
  1 22  1  0
  2 13  1  0
  2 19  1  0
  4  2  1  0
  4 19  1  0
  6  3  1  0
  7  9  2  3
  9  1  1  0
  9 21  1  0
 10 15  1  0
 10 20  1  0
 11 13  1  0
 12  6  1  0
 15 14  1  0
 17 16  1  0
 17 11  1  0
 18 16  2  0
 19  5  1  0
 19  7  1  0
 21  8  1  0
 21  6  1  0
 22 14  1  0
 22  8  1  0
M  END
$$$$

     RDKit          3D

 11 10  0  0  0  0  0  0  0  0999 V2000
   34.2240   37.6750   28.2810 S   0  0  0  0  0  0  0  0  0  0  0  0
   35.2930   36.4130   28.6520 C   0  0  0  0  0  0  0  0  0  0  0  0
   34.8940   38.0190   26.1620 O   0  0  0  0  0  0  0  0  0  0  0  0
   37.8310   38.6750   22.3010 C   0  0  0  0  0  0  0  0  0  0  0  0
   36.8950   37.8830   23.1540 C   0  0  0  0  0  0  0  0  0  0  0  0
   36.1470   36.3780   25.3320 O   0  0  0  0  0  0  0  0  0  0  0  0
   36.2350   38.4080   24.2630 C   0  0  0  0  0  0  0  0  0  0  0  0
   35.1150   40.4390   27.0680 S   0  0  0  0  0  0  0  0  0  0  0  0
   36.2540   35.7280   28.9400 C   0  0  0  0  0  0  0  0  0  0  0  0
   34.8850   38.7390   27.1420 C   0  0  0  0  0  0  0  0  0  0  0  0
   35.9570   37.5340   25.3770 C   0  0  0  0  0  0  0  0  0  0  0  0
  1  2  1  0
  2  9  3  0
  3 10  1  0
  4  5  1  0
  5  7  1  0
  6 11  2  0
  7 11  1  0
  8 10  2  0
 10  1  1  0
 11  3  1  0
M  END
$$$$

     RDKit          3D

 18 17  0  0  0  0  0  0  0  0999 V2000
   36.4830   40.8660   25.2830 C   0  0  0  0  0  0  0  0  0  0  0  0
   37.8300   39.3570   22.9510 C   0  0  0  0  0  0  0  0  0  0  0  0
   35.0890   40.2830   25.2410 C   0  0  0  0  0  0  0  0  0  0  0  0
   33.4270   38.4120   27.6400 N   0  0  0  0  0  0  0  0  0  0  0  0
   32.4920   36.3470   30.8610 C   0  0  0  0  0  0  0  0  0  0  0  0
   34.3260   38.7290   26.8770 C   0  0  0  0  0  0  0  0  0  0  0  0
   34.7160   40.1680   26.7010 C   0  0  0  0  0  0  0  0  0  0  0  0
   35.0180   35.4670   28.2000 N   0  0  0  0  0  0  0  0  0  0  0  0
   36.6210   40.1650   22.9980 N   0  0  0  0  0  0  0  0  0  0  0  0
   33.7070   35.7290   30.2510 C   0  0  0  0  0  0  0  0  0  0  0  0
   34.2710   36.4150   29.0080 C   0  0  0  0  0  0  0  0  0  0  0  0
   35.4130   39.8030   22.2330 C   0  0  0  0  0  0  0  0  0  0  0  0
   33.2330   37.1900   28.1910 C   0  0  0  0  0  0  0  0  0  0  0  0
   31.8990   35.5010   31.9920 C   0  0  0  0  0  0  0  0  0  0  0  0
   36.7670   41.1850   23.9900 C   0  0  0  0  0  0  0  0  0  0  0  0
   32.1630   36.6690   27.9710 O   0  0  0  0  0  0  0  0  0  0  0  0
   31.2540   36.5350   32.9790 C   0  0  0  0  0  0  0  0  0  0  0  0
   35.6450   38.2240   26.9850 O   0  0  0  0  0  0  0  0  0  0  0  0
  2  9  1  0
  3  1  1  0
  3  7  1  0
  4 13  1  0
  5 14  1  0
  6 18  1  0
  6  4  1  0
  7  6  1  0
  9 15  1  0
 10  5  1  0
 11  8  1  0
 11 10  1  0
 12  9  1  0
 13 11  1  0
 14 17  1  0
 15  1  1  0
 16 13  2  0
M  END
$$$$

     RDKit          3D

 13 14  0  0  0  0  0  0  0  0999 V2000
   33.7560   41.2200   24.8410 C   0  0  0  0  0  0  0  0  0  0  0  0
   34.0370   37.2190   23.4330 S   0  0  0  0  0  0  0  0  0  0  0  0
   33.9910   42.0940   24.1070 C   0  0  0  0  0  0  0  0  0  0  0  0
   33.8910   39.8780   25.2250 N   0  0  0  0  0  0  0  0  0  0  0  0
   34.3650   37.1670   26.1860 N   0  0  0  0  0  0  0  0  0  0  0  0
   36.1470   35.9650   25.3580 C   0  0  0  0  0  0  0  0  0  0  0  0
   35.0720   37.1860   24.9470 C   0  0  0  0  0  0  0  0  0  0  0  0
   34.4160   40.7340   27.2190 C   0  0  0  0  0  0  0  0  0  0  0  0
   34.2660   39.3580   27.8210 C   0  0  0  0  0  0  0  0  0  0  0  0
   35.8900   34.9140   24.8980 O   0  0  0  0  0  0  0  0  0  0  0  0
   37.3520   36.1790   25.9650 O   0  0  0  0  0  0  0  0  0  0  0  0
   34.6320   39.5290   26.3530 C   0  0  0  0  0  0  0  0  0  0  0  0
   35.3440   38.2190   25.9460 C   0  0  0  0  0  0  0  0  0  0  0  0
  1  4  1  0
  3  1  2  0
  4 12  1  0
  6 11  1  0
  7  2  1  0
  7  6  1  0
  7 13  1  0
  7  5  1  0
  8  9  1  0
 10  6  2  0
 12  8  1  0
 12  9  1  0
 13  5  1  0
 13 12  1  0
M  END
$$$$

     RDKit          3D

  6  5  0  0  0  0  0  0  0  0999 V2000
   35.8090   38.9420   21.1860 N   0  0  0  0  0  0  0  0  0  0  0  0
   35.6060   39.1990   22.5750 C   0  0  0  0  0  0  0  0  0  0  0  0
   38.0350   39.4180   24.0370 C   0  0  0  0  0  0  0  0  0  0  0  0
   36.9480   40.3880   23.0510 S   0  0  0  0  0  0  0  0  0  0  0  0
   34.9250   38.9470   20.1830 N   0  0  0  0  0  0  0  0  0  0  0  0
   36.3690   41.5160   23.9200 O   0  0  0  0  0  0  0  0  0  0  0  0
  1  2  1  0
  2  4  1  0
  4  6  2  0
  4  3  1  0
  5  1  1  0
M  END
$$$$

     RDKit          3D

 13 12  0  0  0  0  0  0  0  0999 V2000
   36.6250   34.3260   27.9530 N   0  0  0  0  0  0  0  0  0  0  0  0
   34.7000   39.2560   23.9210 C   0  0  0  0  0  0  0  0  0  0  0  0
   37.0570   40.1310   23.9950 N   0  0  0  0  0  0  0  0  0  0  0  0
   34.1260   38.5120   21.7170 O   0  0  0  0  0  0  0  0  0  0  0  0
   36.2560   36.5690   26.8660 C   0  0  0  0  0  0  0  0  0  0  0  0
   34.8550   40.2570   21.6490 O   0  0  0  0  0  0  0  0  0  0  0  0
   36.7810   35.3250   27.5520 C   0  0  0  0  0  0  0  0  0  0  0  0
   34.5350   39.3600   22.4180 C   0  0  0  0  0  0  0  0  0  0  0  0
   36.6840   37.7610   24.5620 C   0  0  0  0  0  0  0  0  0  0  0  0
   36.0930   39.1080   24.5580 C   0  0  0  0  0  0  0  0  0  0  0  0
   36.4200   33.1150   28.8870 C   0  0  0  0  0  0  0  0  0  0  0  0
   37.0030   33.7480   30.1150 C   0  0  0  0  0  0  0  0  0  0  0  0
   36.1450   36.5810   25.3370 C   0  0  0  0  0  0  0  0  0  0  0  0
  1 11  1  0
  2 10  1  0
  4  8  1  0
  5  7  1  0
  6  8  2  0
  7  1  1  0
  8  2  1  0
  9 13  1  0
 10  3  1  0
 10  9  1  0
 11 12  1  0
 13  5  1  0
M  END
$$$$

     RDKit          3D

  9 10  0  0  0  0  0  0  0  0999 V2000
   35.6540   39.0080   24.1510 C   0  0  0  0  0  0  0  0  0  0  0  0
   34.5820   37.3060   24.6270 N   0  0  0  0  0  0  0  0  0  0  0  0
   33.5610   40.4780   22.6790 C   0  0  0  0  0  0  0  0  0  0  0  0
   35.8190   41.3520   23.6060 C   0  0  0  0  0  0  0  0  0  0  0  0
   36.9190   38.8550   24.8440 C   0  0  0  0  0  0  0  0  0  0  0  0
   34.8420   41.2810   22.6900 C   0  0  0  0  0  0  0  0  0  0  0  0
   34.6560   38.4750   24.0420 C   0  0  0  0  0  0  0  0  0  0  0  0
   36.6000   40.0930   23.9900 C   0  0  0  0  0  0  0  0  0  0  0  0
   33.5280   39.1670   23.4170 C   0  0  0  0  0  0  0  0  0  0  0  0
  1  5  1  0
  3  6  1  0
  3  9  2  0
  6  4  1  0
  7  1  2  0
  7  2  1  0
  8  4  1  0
  8  1  1  0
  8  5  1  0
  9  7  1  0
M  END
$$$$

     RDKit          3D

  4  3  0  0  0  0  0  0  0  0999 V2000
   33.5950   39.1630   24.6830 C   0  0  0  0  0  0  0  0  0  0  0  0
   33.2620   39.4210   22.3910 O   0  0  0  0  0  0  0  0  0  0  0  0
   33.8860   39.7240   23.5320 C   0  0  0  0  0  0  0  0  0  0  0  0
   34.0830   40.3140   24.2140 O   0  0  0  0  0  0  0  0  0  0  0  0
  2  3  2  0
  3  4  1  0
  3  1  1  0
M  END
$$$$

     RDKit          3D

 18 17  0  0  0  0  0  0  0  0999 V2000
   37.2760   40.5960   24.6910 C   0  0  0  0  0  0  0  0  0  0  0  0
   36.6910   39.4760   27.9920 C   0  0  0  0  0  0  0  0  0  0  0  0
   36.7180   37.5310   29.6170 C   0  0  0  0  0  0  0  0  0  0  0  0
   36.5590   35.8060   32.9060 O   0  0  0  0  0  0  0  0  0  0  0  0
   35.8290   34.4180   31.0360 C   0  0  0  0  0  0  0  0  0  0  0  0
   34.8450   39.1370   26.4720 O   0  0  0  0  0  0  0  0  0  0  0  0
   35.9620   38.7430   26.8660 C   0  0  0  0  0  0  0  0  0  0  0  0
   36.6430   37.5550   26.1780 C   0  0  0  0  0  0  0  0  0  0  0  0
   36.5030   33.3310   30.4660 F   0  0  0  0  0  0  0  0  0  0  0  0
   36.7500   38.3340   23.7270 C   0  0  0  0  0  0  0  0  0  0  0  0
   36.9000   37.2780   24.7180 C   0  0  0  0  0  0  0  0  0  0  0  0
   35.9690   35.3240   29.8710 C   0  0  0  0  0  0  0  0  0  0  0  0
   37.2620   38.1690   22.6250 O   0  0  0  0  0  0  0  0  0  0  0  0
   36.2550   39.7710   24.0050 C   0  0  0  0  0  0  0  0  0  0  0  0
   37.4400   38.5640   28.9730 C   0  0  0  0  0  0  0  0  0  0  0  0
   35.8200   34.9290   32.4380 C   0  0  0  0  0  0  0  0  0  0  0  0
   35.0990   34.2370   33.1160 O   0  0  0  0  0  0  0  0  0  0  0  0
   37.0600   36.3120   30.1570 C   0  0  0  0  0  0  0  0  0  0  0  0
  2 15  1  0
  3 18  1  0
  5  9  1  0
  5 16  1  0
  6  7  2  0
  7  2  1  0
  8  7  1  0
 10 14  1  0
 10 11  1  0
 11  8  2  3
 12 18  1  0
 12  5  1  0
 13 10  2  0
 14  1  1  0
 15  3  1  0
 16  4  2  0
 16 17  1  0
M  END
$$$$

     RDKit          3D

 13 12  0  0  0  0  0  0  0  0999 V2000
   37.1710   37.8740   28.7240 C   0  0  0  0  0  0  0  0  0  0  0  0
   38.5530   39.9180   28.4310 O   0  0  0  0  0  0  0  0  0  0  0  0
   37.9700   36.9840   32.0800 C   0  0  0  0  0  0  0  0  0  0  0  0
   37.1630   38.5880   27.7450 C   0  0  0  0  0  0  0  0  0  0  0  0
   37.3620   38.3390   30.2920 C   0  0  0  0  0  0  0  0  0  0  0  0
   37.8280   40.1860   26.2050 N   0  0  0  0  0  0  0  0  0  0  0  0
   38.8820   37.9060   32.1120 O   0  0  0  0  0  0  0  0  0  0  0  0
   38.0630   41.6850   26.4760 C   0  0  0  0  0  0  0  0  0  0  0  0
   36.8310   39.8870   25.1460 C   0  0  0  0  0  0  0  0  0  0  0  0
   37.2110   37.7620   29.9590 N   0  0  0  0  0  0  0  0  0  0  0  0
   36.4850   35.3510   32.9470 I   0  0  0  0  0  0  0  0  0  0  0  0
   37.8860   39.6500   27.3520 C   0  0  0  0  0  0  0  0  0  0  0  0
   37.3950   37.4140   31.0930 N   0  0  0  0  0  0  0  0  0  0  0  0
  1 10  1  0
  3  7  2  0
  3 11  1  0
  4  1  1  0
  6  8  1  0
  6 12  1  0
  9  6  1  0
 10  5  1  0
 10 13  1  0
 12  4  1  0
 12  2  2  0
 13  3  1  0
M  END
$$$$

     RDKit          3D

  9  8  0  0  0  0  0  0  0  0999 V2000
   35.8090   36.5690   28.4560 C   0  0  0  0  0  0  0  0  0  0  0  0
   36.8300   37.5630   28.5490 O   0  0  0  0  0  0  0  0  0  0  0  0
   34.0970   37.7780   29.5520 O   0  0  0  0  0  0  0  0  0  0  0  0
   34.8340   35.7810   26.2610 O   0  0  0  0  0  0  0  0  0  0  0  0
   34.4300   38.1440   26.9330 O   0  0  0  0  0  0  0  0  0  0  0  0
   34.7780   36.8220   29.5380 C   0  0  0  0  0  0  0  0  0  0  0  0
   35.3400   37.0210   26.7580 S   0  0  0  0  0  0  0  0  0  0  0  0
   34.5350   36.3280   30.6190 O   0  0  0  0  0  0  0  0  0  0  0  0
   36.4390   37.5210   25.6080 C   0  0  0  0  0  0  0  0  0  0  0  0
  1  2  1  0
  1  6  1  0
  4  7  2  0
  6  3  2  0
  6  8  1  0
  7  5  2  0
  7  1  1  0
  9  7  1  0
M  END
$$$$

     RDKit          3D

 11 10  0  0  0  0  0  0  0  0999 V2000
   33.1160   38.3610   24.3990 C   0  0  0  0  0  0  0  0  0  0  0  0
   37.0470   40.1800   22.5810 C   0  0  0  0  0  0  0  0  0  0  0  0
   35.5770   40.0880   23.0250 C   0  0  0  0  0  0  0  0  0  0  0  0
   35.9740   37.6290   23.1730 C   0  0  0  0  0  0  0  0  0  0  0  0
   33.1870   38.7090   26.7360 N   0  0  0  0  0  0  0  0  0  0  0  0
   32.3870   38.2490   25.7200 C   0  0  0  0  0  0  0  0  0  0  0  0
   34.4450   38.5900   24.7360 N   0  0  0  0  0  0  0  0  0  0  0  0
   35.6880   37.7510   21.6790 C   0  0  0  0  0  0  0  0  0  0  0  0
   37.9670   39.6890   23.6800 N   0  0  0  0  0  0  0  0  0  0  0  0
   31.3780   37.6520   25.9760 O   0  0  0  0  0  0  0  0  0  0  0  0
   35.5700   38.9180   23.9140 C   0  0  0  0  0  0  0  0  0  0  0  0
  1  7  1  0
  1  6  1  0
  2  3  1  0
  2  9  1  0
  4 11  1  0
  6 10  2  0
  6  5  1  0
  8  4  1  0
 11  3  1  0
 11  7  1  0
M  END
$$$$

     RDKit          3D

 14 14  0  0  0  0  0  0  0  0999 V2000
   35.9730   37.2900   30.1300 C   0  0  0  0  0  0  0  0  0  0  0  0
   36.7080   38.5570   27.0060 C   0  0  0  0  0  0  0  0  0  0  0  0
   36.4260   37.5830   24.4040 O   0  0  0  0  0  0  0  0  0  0  0  0
   36.9320   38.6890   24.1280 C   0  0  0  0  0  0  0  0  0  0  0  0
   37.4860   39.8240   24.9880 C   0  0  0  0  0  0  0  0  0  0  0  0
   38.0860   39.0750   28.9720 C   0  0  0  0  0  0  0  0  0  0  0  0
   36.7940   39.1530   22.8590 O   0  0  0  0  0  0  0  0  0  0  0  0
   37.0770   37.1340   30.8340 C   0  0  0  0  0  0  0  0  0  0  0  0
   35.2990   38.5700   26.7710 O   0  0  0  0  0  0  0  0  0  0  0  0
   37.5190   39.5970   26.3990 O   0  0  0  0  0  0  0  0  0  0  0  0
   36.8510   38.7810   28.4900 C   0  0  0  0  0  0  0  0  0  0  0  0
   38.6600   38.8420   30.1920 C   0  0  0  0  0  0  0  0  0  0  0  0
   35.7220   38.1860   29.1180 C   0  0  0  0  0  0  0  0  0  0  0  0
   38.2030   37.8730   31.0460 C   0  0  0  0  0  0  0  0  0  0  0  0
  1  8  1  0
  2  9  1  0
  2 11  1  0
  4  3  1  0
  4  5  1  0
  5 10  1  0
  6 12  1  0
  7  4  2  0
  8 14  1  0
 10  2  1  0
 11  6  2  0
 11 13  1  0
 12 14  2  0
 13  1  2  0
M  END
$$$$

     RDKit          3D

 12 11  0  0  0  0  0  0  0  0999 V2000
   38.7840   38.3320   30.2760 O   0  0  0  0  0  0  0  0  0  0  0  0
   37.8160   39.0650   30.3660 N   0  0  0  0  0  0  0  0  0  0  0  0
   38.3440   39.6810   27.1150 C   0  0  0  0  0  0  0  0  0  0  0  0
   35.9280   39.9670   27.2000 O   0  0  0  0  0  0  0  0  0  0  0  0
   36.0370   40.4490   24.8150 O   0  0  0  0  0  0  0  0  0  0  0  0
   39.0470   40.6240   26.3710 O   0  0  0  0  0  0  0  0  0  0  0  0
   36.9630   39.5050   25.1510 C   0  0  0  0  0  0  0  0  0  0  0  0
   37.4590   39.9740   29.3740 C   0  0  0  0  0  0  0  0  0  0  0  0
   38.5130   40.2380   28.4930 C   0  0  0  0  0  0  0  0  0  0  0  0
   37.1510   39.0470   31.3630 O   0  0  0  0  0  0  0  0  0  0  0  0
   37.0560   39.3040   26.6510 C   0  0  0  0  0  0  0  0  0  0  0  0
   38.2340   39.2120   24.4390 C   0  0  0  0  0  0  0  0  0  0  0  0
  1  2  2  0
  2 10  2  0
  3  6  1  0
  3  9  1  0
  5  7  1  0
  7 12  1  0
  7 11  1  0
  8  2  1  0
  9  8  1  0
 11  3  1  0
 11  4  1  0
M  END
$$$$

     RDKit          3D

 20 21  0  0  0  0  0  0  0  0999 V2000
   35.6210   36.3460   27.5910 C   0  0  0  0  0  0  0  0  0  0  0  0
   37.4110   35.6150   31.2260 C   0  0  0  0  0  0  0  0  0  0  0  0
   34.1550   41.4840   25.8570 C   0  0  0  0  0  0  0  0  0  0  0  0
   34.1200   36.3360   27.9860 C   0  0  0  0  0  0  0  0  0  0  0  0
   35.5270   40.7700   20.9340 O   0  0  0  0  0  0  0  0  0  0  0  0
   35.0800   40.3250   26.2080 C   0  0  0  0  0  0  0  0  0  0  0  0
   36.4510   38.8240   27.5750 C   0  0  0  0  0  0  0  0  0  0  0  0
   37.2570   39.5320   21.3820 O   0  0  0  0  0  0  0  0  0  0  0  0
   36.4080   38.2600   25.0550 C   0  0  0  0  0  0  0  0  0  0  0  0
   36.2290   37.5280   28.2320 N   0  0  0  0  0  0  0  0  0  0  0  0
   35.1310   35.3110   30.0910 C   0  0  0  0  0  0  0  0  0  0  0  0
   35.2080   39.2690   25.2740 C   0  0  0  0  0  0  0  0  0  0  0  0
   35.8400   40.4810   23.1940 C   0  0  0  0  0  0  0  0  0  0  0  0
   35.7810   38.0560   23.6140 C   0  0  0  0  0  0  0  0  0  0  0  0
   34.0210   36.1620   29.4940 C   0  0  0  0  0  0  0  0  0  0  0  0
   35.1140   39.5670   27.5780 C   0  0  0  0  0  0  0  0  0  0  0  0
   35.0920   39.4400   23.7970 C   0  0  0  0  0  0  0  0  0  0  0  0
   36.2160   40.1440   21.7710 C   0  0  0  0  0  0  0  0  0  0  0  0
   36.6220   37.4470   29.6550 C   0  0  0  0  0  0  0  0  0  0  0  0
   36.3050   36.1510   30.3890 C   0  0  0  0  0  0  0  0  0  0  0  0
  1  4  1  0
  1 10  1  0
  4 15  1  0
  5 18  2  0
  6  3  1  0
  6 16  1  0
  7 16  1  0
  7 10  1  0
  8 18  1  0
  9 12  1  0
 10 19  1  0
 11 20  1  0
 12  6  1  0
 14 17  1  0
 14  9  1  0
 15 11  1  0
 17 13  1  0
 17 12  1  0
 18 13  1  0
 19 20  1  0
 20  2  1  0
M  END
$$$$

     RDKit          3D

  6  5  0  0  0  0  0  0  0  0999 V2000
   35.3080   37.3090   23.6950 O   0  0  0  0  0  0  0  0  0  0  0  0
   35.1400   38.2870   22.8620 C   0  0  0  0  0  0  0  0  0  0  0  0
   35.0840   39.6270   23.5290 C   0  0  0  0  0  0  0  0  0  0  0  0
   36.1610   40.2180   23.5780 O   0  0  0  0  0  0  0  0  0  0  0  0
   34.9630   38.2380   21.6060 O   0  0  0  0  0  0  0  0  0  0  0  0
   34.0080   40.2370   23.7330 O   0  0  0  0  0  0  0  0  0  0  0  0
  2  3  1  0
  2  1  1  0
  3  4  2  0
  3  6  1  0
  5  2  2  0
M  END
$$$$
