
     RDKit          3D

 18 19  0  0  0  0  0  0  0  0999 V2000
   35.3790   34.6350   30.5370 C   0  0  0  0  0  0  0  0  0  0  0  0
   36.2870   42.5930   27.3940 C   0  0  0  0  0  0  0  0  0  0  0  0
   36.3270   38.2150   28.6030 O   0  0  0  0  0  0  0  0  0  0  0  0
   36.6330   41.5660   28.4490 C   0  0  0  0  0  0  0  0  0  0  0  0
   36.9110   40.2110   27.8360 C   0  0  0  0  0  0  0  0  0  0  0  0
   36.4540   43.7650   25.7270 O   0  0  0  0  0  0  0  0  0  0  0  0
   36.5550   34.7120   29.8130 C   0  0  0  0  0  0  0  0  0  0  0  0
   33.2360   35.8400   31.0380 O   0  0  0  0  0  0  0  0  0  0  0  0
   34.5130   35.7030   30.4590 C   0  0  0  0  0  0  0  0  0  0  0  0
   37.2100   42.8010   26.2530 C   0  0  0  0  0  0  0  0  0  0  0  0
   37.2570   39.2270   28.9510 C   0  0  0  0  0  0  0  0  0  0  0  0
   38.5160   42.4580   25.9730 O   0  0  0  0  0  0  0  0  0  0  0  0
   36.8850   35.9140   29.1840 C   0  0  0  0  0  0  0  0  0  0  0  0
   32.6500   36.9470   30.5790 C   0  0  0  0  0  0  0  0  0  0  0  0
   34.7370   36.8160   29.7160 C   0  0  0  0  0  0  0  0  0  0  0  0
   33.5710   37.5040   29.6200 O   0  0  0  0  0  0  0  0  0  0  0  0
   38.1070   36.0490   28.5280 O   0  0  0  0  0  0  0  0  0  0  0  0
   36.0070   37.0040   29.2240 C   0  0  0  0  0  0  0  0  0  0  0  0
  2  4  1  0
  3 11  1  0
  3 18  1  0
  5  4  1  0
  5 11  1  0
  6 10  2  0
  7  1  2  0
  9  1  1  0
  9  8  1  0
 10  2  1  0
 12 10  1  0
 13 18  2  0
 13  7  1  0
 14  8  1  0
 15  9  2  0
 16 15  1  0
 16 14  1  0
 17 13  1  0
 18 15  1  0
M  END
$$$$

     RDKit          3D

  5  4  0  0  0  0  0  0  0  0999 V2000
   38.0290   34.1320   28.4570 N   0  0  0  0  0  0  0  0  0  0  0  0
   37.5000   38.2550   25.8350 C   0  0  0  0  0  0  0  0  0  0  0  0
   37.1590   36.4080   27.6540 C   0  0  0  0  0  0  0  0  0  0  0  0
   37.7010   37.8230   27.3040 C   0  0  0  0  0  0  0  0  0  0  0  0
   38.1330   35.6390   28.5150 C   0  0  0  0  0  0  0  0  0  0  0  0
  1  5  1  0
  2  4  1  0
  3  5  1  0
  4  3  1  0
M  END
$$$$

     RDKit          3D

 22 23  0  0  0  0  0  0  0  0999 V2000
   32.2830   34.5170   32.8740 C   0  0  0  0  0  0  0  0  0  0  0  0
   34.8310   37.1950   30.0540 C   0  0  0  0  0  0  0  0  0  0  0  0
   33.5580   34.5280   32.1740 C   0  0  0  0  0  0  0  0  0  0  0  0
   38.9960   38.4630   26.4830 N   0  0  0  0  0  0  0  0  0  0  0  0
   36.3400   33.6630   30.4280 C   0  0  0  0  0  0  0  0  0  0  0  0
   31.9290   36.9240   32.1450 C   0  0  0  0  0  0  0  0  0  0  0  0
   35.1200   35.8840   30.7070 C   0  0  0  0  0  0  0  0  0  0  0  0
   36.3370   38.9850   27.6110 C   0  0  0  0  0  0  0  0  0  0  0  0
   33.0650   36.8210   31.3150 C   0  0  0  0  0  0  0  0  0  0  0  0
   38.6410   40.9170   26.1550 C   0  0  0  0  0  0  0  0  0  0  0  0
   36.0230   38.0960   28.1730 N   0  0  0  0  0  0  0  0  0  0  0  0
   39.5620   41.1770   24.9370 C   0  0  0  0  0  0  0  0  0  0  0  0
   33.9790   35.6290   31.4220 C   0  0  0  0  0  0  0  0  0  0  0  0
   31.4980   35.7700   32.9320 C   0  0  0  0  0  0  0  0  0  0  0  0
   36.0850   33.0460   31.7140 O   0  0  0  0  0  0  0  0  0  0  0  0
   40.8480   40.7290   25.3420 O   0  0  0  0  0  0  0  0  0  0  0  0
   30.4430   35.8620   33.7340 O   0  0  0  0  0  0  0  0  0  0  0  0
   33.7210   37.7490   30.5090 N   0  0  0  0  0  0  0  0  0  0  0  0
   35.9720   37.7220   29.2570 C   0  0  0  0  0  0  0  0  0  0  0  0
   38.0620   39.4760   26.0450 C   0  0  0  0  0  0  0  0  0  0  0  0
   36.8720   39.5430   26.8570 C   0  0  0  0  0  0  0  0  0  0  0  0
   36.4100   35.2120   30.5400 C   0  0  0  0  0  0  0  0  0  0  0  0
  1 14  1  0
  2 18  2  0
  2  7  1  0
  3  1  2  0
  5 22  1  0
  5 15  1  0
  6 14  2  0
  7 22  1  0
  7 13  1  0
  8 11  1  0
  9 13  2  0
  9  6  1  0
 11 19  1  0
 12 16  1  0
 12 10  1  0
 13  3  1  0
 14 17  1  0
 18  9  1  0
 19  2  1  0
 20 10  1  0
 20  4  1  0
 20 21  1  0
 21  8  1  0
M  END
$$$$

     RDKit          3D

 23 23  0  0  0  0  0  0  0  0999 V2000
   36.3830   37.9350   29.5040 C   0  0  0  0  0  0  0  0  0  0  0  0
   34.3270   32.4650   31.6230 C   0  0  0  0  0  0  0  0  0  0  0  0
   35.6800   42.4780   26.9550 C   0  0  0  0  0  0  0  0  0  0  0  0
   38.0890   39.4500   27.8430 C   0  0  0  0  0  0  0  0  0  0  0  0
   36.7910   35.4990   29.7100 N   0  0  0  0  0  0  0  0  0  0  0  0
   35.5870   32.3400   31.1240 N   0  0  0  0  0  0  0  0  0  0  0  0
   37.8790   40.3550   30.0720 C   0  0  0  0  0  0  0  0  0  0  0  0
   33.7870   30.3990   32.7440 N   0  0  0  0  0  0  0  0  0  0  0  0
   33.1960   31.4940   32.0050 C   0  0  0  0  0  0  0  0  0  0  0  0
   36.1150   39.2490   29.2250 C   0  0  0  0  0  0  0  0  0  0  0  0
   36.4500   33.2310   30.6130 C   0  0  0  0  0  0  0  0  0  0  0  0
   36.0540   34.5510   30.4820 C   0  0  0  0  0  0  0  0  0  0  0  0
   37.2250   40.0690   28.8880 N   0  0  0  0  0  0  0  0  0  0  0  0
   34.8280   34.7910   31.1210 C   0  0  0  0  0  0  0  0  0  0  0  0
   34.6590   36.1670   31.6250 C   0  0  0  0  0  0  0  0  0  0  0  0
   36.9830   36.8400   29.7600 C   0  0  0  0  0  0  0  0  0  0  0  0
   36.9020   43.2610   26.6340 C   0  0  0  0  0  0  0  0  0  0  0  0
   33.1110   36.2630   31.6670 C   0  0  0  0  0  0  0  0  0  0  0  0
   35.6740   41.2220   27.4130 C   0  0  0  0  0  0  0  0  0  0  0  0
   37.4310   35.1410   28.5010 C   0  0  0  0  0  0  0  0  0  0  0  0
   33.9230   33.8970   31.8710 C   0  0  0  0  0  0  0  0  0  0  0  0
   36.6450   41.4190   28.5210 C   0  0  0  0  0  0  0  0  0  0  0  0
   37.3280   44.4420   27.2720 N   0  0  0  0  0  0  0  0  0  0  0  0
  1 16  2  0
  2 21  1  0
  2  9  1  0
  3 19  1  0
  4 13  1  0
  5 16  1  0
  5 12  1  0
  6  2  2  0
  9  8  1  0
 10  1  2  0
 11  6  1  0
 12 11  2  0
 12 14  1  0
 13 10  1  0
 13  7  1  0
 14 15  1  0
 14 21  2  0
 15 18  1  0
 17  3  1  0
 17 23  1  0
 19 22  1  0
 20  5  1  0
 22 13  1  0
M  END
$$$$

     RDKit          3D

 34 35  0  0  0  0  0  0  0  0999 V2000
   36.3100   37.2140   30.0520 C   0  0  0  0  0  0  0  0  0  0  0  0
   33.7010   35.4990   34.5360 C   0  0  0  0  0  0  0  0  0  0  0  0
   34.3110   41.0400   22.3220 O   0  0  0  0  0  0  0  0  0  0  0  0
   35.9380   36.1540   33.1580 N   0  0  0  0  0  0  0  0  0  0  0  0
   33.9730   43.3370   23.3080 O   0  0  0  0  0  0  0  0  0  0  0  0
   36.6980   30.4160   35.0120 C   0  0  0  0  0  0  0  0  0  0  0  0
   34.2930   35.1650   33.2210 C   0  0  0  0  0  0  0  0  0  0  0  0
   36.5340   42.1020   23.8970 C   0  0  0  0  0  0  0  0  0  0  0  0
   34.8230   36.2260   32.6540 C   0  0  0  0  0  0  0  0  0  0  0  0
   35.0140   44.5150   21.1070 C   0  0  0  0  0  0  0  0  0  0  0  0
   36.4050   38.0080   28.9890 N   0  0  0  0  0  0  0  0  0  0  0  0
   37.3150   42.2150   25.2240 C   0  0  0  0  0  0  0  0  0  0  0  0
   37.3340   37.9510   27.9920 C   0  0  0  0  0  0  0  0  0  0  0  0
   38.0430   39.1180   27.2740 C   0  0  0  0  0  0  0  0  0  0  0  0
   36.1280   31.4830   34.5140 C   0  0  0  0  0  0  0  0  0  0  0  0
   36.0260   42.6240   22.5400 C   0  0  0  0  0  0  0  0  0  0  0  0
   37.0540   43.8980   20.2980 C   0  0  0  0  0  0  0  0  0  0  0  0
   35.5520   43.6240   19.9280 C   0  0  0  0  0  0  0  0  0  0  0  0
   37.2320   36.3600   30.4410 N   0  0  0  0  0  0  0  0  0  0  0  0
   35.9040   40.4960   27.2090 C   0  0  0  0  0  0  0  0  0  0  0  0
   32.8440   43.9180   22.6540 C   0  0  0  0  0  0  0  0  0  0  0  0
   34.4340   37.0440   31.6770 C   0  0  0  0  0  0  0  0  0  0  0  0
   33.9240   34.2490   35.2650 C   0  0  0  0  0  0  0  0  0  0  0  0
   37.3510   40.3250   26.8530 C   0  0  0  0  0  0  0  0  0  0  0  0
   36.9960   30.3410   36.4580 C   0  0  0  0  0  0  0  0  0  0  0  0
   35.8380   43.2190   21.0350 C   0  0  0  0  0  0  0  0  0  0  0  0
   34.7940   32.1070   34.7750 C   0  0  0  0  0  0  0  0  0  0  0  0
   33.6710   31.5320   34.9490 N   0  0  0  0  0  0  0  0  0  0  0  0
   37.9210   40.8520   25.5740 C   0  0  0  0  0  0  0  0  0  0  0  0
   37.5610   36.8580   27.5070 O   0  0  0  0  0  0  0  0  0  0  0  0
   34.9020   33.4660   34.8930 N   0  0  0  0  0  0  0  0  0  0  0  0
   35.2260   37.6080   31.0150 C   0  0  0  0  0  0  0  0  0  0  0  0
   34.4830   42.2090   22.6540 C   0  0  0  0  0  0  0  0  0  0  0  0
   37.7090   29.5330   37.1050 C   0  0  0  0  0  0  0  0  0  0  0  0
  1 19  2  0
  1 32  1  0
  2 23  1  0
  3 33  2  0
  6 25  1  0
  7  2  1  0
  8 12  1  0
  9  4  2  0
  9  7  1  0
 11  1  1  0
 12 29  1  0
 13 11  1  0
 14 13  1  0
 15 27  1  0
 15  6  1  0
 16 33  1  0
 16  8  1  0
 17 26  1  0
 18 17  1  0
 18 26  1  0
 18 10  1  0
 21  5  1  0
 22  9  1  0
 24 20  1  0
 24 14  1  0
 25 34  2  0
 26 10  1  0
 26 16  1  0
 27 31  1  0
 27 28  2  0
 29 24  1  0
 30 13  2  0
 31 23  1  0
 32 22  1  0
 33  5  1  0
M  END
$$$$

     RDKit          3D

 15 16  0  0  0  0  0  0  0  0999 V2000
   33.9960   35.4260   32.5550 O   0  0  0  0  0  0  0  0  0  0  0  0
   37.1550   34.8850   30.0880 C   0  0  0  0  0  0  0  0  0  0  0  0
   35.1010   36.1290   30.5840 C   0  0  0  0  0  0  0  0  0  0  0  0
   37.0310   38.1830   27.3530 N   0  0  0  0  0  0  0  0  0  0  0  0
   37.1940   37.0660   27.9610 C   0  0  0  0  0  0  0  0  0  0  0  0
   38.1050   36.2950   27.6580 O   0  0  0  0  0  0  0  0  0  0  0  0
   34.5210   37.2640   30.3530 N   0  0  0  0  0  0  0  0  0  0  0  0
   35.3090   37.7870   29.2430 N   0  0  0  0  0  0  0  0  0  0  0  0
   35.7030   34.0110   31.8580 C   0  0  0  0  0  0  0  0  0  0  0  0
   36.3250   36.9200   29.0060 N   0  0  0  0  0  0  0  0  0  0  0  0
   36.2750   35.8990   29.8440 C   0  0  0  0  0  0  0  0  0  0  0  0
   36.3720   40.4350   27.8820 C   0  0  0  0  0  0  0  0  0  0  0  0
   34.7270   35.0690   31.5750 C   0  0  0  0  0  0  0  0  0  0  0  0
   35.9320   39.1900   27.1140 C   0  0  0  0  0  0  0  0  0  0  0  0
   36.8650   33.9400   31.1130 C   0  0  0  0  0  0  0  0  0  0  0  0
  2 15  2  0
  3 13  1  0
  4  5  1  0
  5 10  1  0
  6  5  2  0
  7  3  1  0
  8  7  2  0
 10  8  1  0
 10 11  1  0
 11  2  1  0
 11  3  2  0
 13  9  1  0
 13  1  2  0
 14  4  1  0
 14 12  1  0
 15  9  1  0
M  END
$$$$

     RDKit          3D

 26 27  0  0  0  0  0  0  0  0999 V2000
   35.5650   36.8100   30.8100 C   0  0  0  0  0  0  0  0  0  0  0  0
   37.9190   40.1470   28.0390 C   0  0  0  0  0  0  0  0  0  0  0  0
   31.6000   35.3340   31.9710 C   0  0  0  0  0  0  0  0  0  0  0  0
   32.8660   34.9990   32.5060 C   0  0  0  0  0  0  0  0  0  0  0  0
   37.5050   41.8040   26.1970 C   0  0  0  0  0  0  0  0  0  0  0  0
   33.8290   35.1870   31.7570 C   0  0  0  0  0  0  0  0  0  0  0  0
   30.9750   35.7470   34.2240 C   0  0  0  0  0  0  0  0  0  0  0  0
   35.9560   36.5920   29.4120 N   0  0  0  0  0  0  0  0  0  0  0  0
   37.6040   37.6220   27.9670 C   0  0  0  0  0  0  0  0  0  0  0  0
   31.8520   34.7980   34.6490 C   0  0  0  0  0  0  0  0  0  0  0  0
   37.4740   42.1860   23.9730 C   0  0  0  0  0  0  0  0  0  0  0  0
   32.9140   34.5230   33.8100 C   0  0  0  0  0  0  0  0  0  0  0  0
   32.1220   34.0170   36.9940 O   0  0  0  0  0  0  0  0  0  0  0  0
   38.5620   41.6740   22.8050 N   0  0  0  0  0  0  0  0  0  0  0  0
   30.4230   33.9740   36.3290 O   0  0  0  0  0  0  0  0  0  0  0  0
   34.6770   35.7750   31.1150 C   0  0  0  0  0  0  0  0  0  0  0  0
   37.7940   41.3500   24.9320 C   0  0  0  0  0  0  0  0  0  0  0  0
   30.5760   35.6500   32.8360 C   0  0  0  0  0  0  0  0  0  0  0  0
   35.5790   40.2440   26.3210 C   0  0  0  0  0  0  0  0  0  0  0  0
   31.7800   34.3950   36.0710 C   0  0  0  0  0  0  0  0  0  0  0  0
   36.8650   40.6920   27.0710 C   0  0  0  0  0  0  0  0  0  0  0  0
   39.0230   40.6440   23.3320 C   0  0  0  0  0  0  0  0  0  0  0  0
   38.1480   38.8640   27.3040 C   0  0  0  0  0  0  0  0  0  0  0  0
   35.4250   38.7550   28.7680 O   0  0  0  0  0  0  0  0  0  0  0  0
   38.3310   40.1810   24.4190 C   0  0  0  0  0  0  0  0  0  0  0  0
   36.2800   37.7250   28.6910 C   0  0  0  0  0  0  0  0  0  0  0  0
  1 16  1  0
  3  4  1  0
  3 18  1  0
  4  6  1  0
  4 12  1  0
  5 21  1  0
  7 10  1  0
  8  1  1  0
  9 26  1  0
 10 20  1  0
 11 17  1  0
 12 10  2  0
 14 22  1  0
 14 11  1  0
 16  6  3  0
 17  5  1  0
 18  7  1  0
 20 15  2  0
 20 13  1  0
 21 19  1  0
 21  2  1  0
 22 25  1  0
 23  9  1  0
 23  2  1  0
 25 17  1  0
 26 24  2  0
 26  8  1  0
M  END
$$$$

     RDKit          3D

 23 23  0  0  0  0  0  0  0  0999 V2000
   35.6770   36.7880   30.2190 C   0  0  0  0  0  0  0  0  0  0  0  0
   36.4250   35.1220   35.4350 C   0  0  0  0  0  0  0  0  0  0  0  0
   36.6540   35.8120   36.8590 O   0  0  0  0  0  0  0  0  0  0  0  0
   37.9910   36.5880   34.2970 N   0  0  0  0  0  0  0  0  0  0  0  0
   35.4840   39.3250   27.4580 O   0  0  0  0  0  0  0  0  0  0  0  0
   36.7020   41.2510   26.6420 O   0  0  0  0  0  0  0  0  0  0  0  0
   35.4690   42.2870   24.2090 C   0  0  0  0  0  0  0  0  0  0  0  0
   37.7920   38.0300   26.5210 O   0  0  0  0  0  0  0  0  0  0  0  0
   34.2880   42.0070   23.1460 O   0  0  0  0  0  0  0  0  0  0  0  0
   35.3800   36.2120   32.4860 C   0  0  0  0  0  0  0  0  0  0  0  0
   36.4500   36.4680   34.6590 C   0  0  0  0  0  0  0  0  0  0  0  0
   35.5190   34.2710   35.4160 O   0  0  0  0  0  0  0  0  0  0  0  0
   36.5430   41.8650   23.4530 O   0  0  0  0  0  0  0  0  0  0  0  0
   34.8190   36.6870   31.4600 C   0  0  0  0  0  0  0  0  0  0  0  0
   35.1450   43.7920   24.1730 C   0  0  0  0  0  0  0  0  0  0  0  0
   35.9130   42.0350   25.7500 C   0  0  0  0  0  0  0  0  0  0  0  0
   35.0380   36.4260   33.9640 C   0  0  0  0  0  0  0  0  0  0  0  0
   36.5420   43.5160   26.0050 C   0  0  0  0  0  0  0  0  0  0  0  0
   35.4000   44.3820   25.5090 C   0  0  0  0  0  0  0  0  0  0  0  0
   37.2360   38.2650   28.9680 C   0  0  0  0  0  0  0  0  0  0  0  0
   36.8750   38.8600   27.3430 S   0  0  0  0  0  0  0  0  0  0  0  0
   36.0370   38.2420   29.9370 C   0  0  0  0  0  0  0  0  0  0  0  0
   37.5730   40.3250   26.4610 C   0  0  0  0  0  0  0  0  0  0  0  0
  1 14  1  0
  2  3  1  0
  7 16  1  0
  8 21  2  0
  9  7  1  0
 10 17  1  0
 11  4  1  0
 11  2  1  0
 12  2  1  0
 13  7  1  0
 14 10  1  0
 15  7  1  0
 15 19  1  0
 16 18  1  0
 16  6  1  0
 17 11  1  0
 19 18  1  0
 20 22  1  0
 21  5  2  0
 21 20  1  0
 22  1  1  0
 23  6  1  0
 23 21  1  0
M  END
$$$$

     RDKit          3D

 36 40  0  0  0  0  0  0  0  0999 V2000
   36.0260   38.6670   26.2320 C   0  0  0  0  0  0  0  0  0  0  0  0
   37.6400   34.1390   31.0940 C   0  0  0  0  0  0  0  0  0  0  0  0
   38.5830   38.9430   26.6290 C   0  0  0  0  0  0  0  0  0  0  0  0
   34.6560   32.4430   35.3790 C   0  0  0  0  0  0  0  0  0  0  0  0
   35.0150   37.1810   30.8380 S   0  0  0  0  0  0  0  0  0  0  0  0
   33.6720   36.7320   30.4010 O   0  0  0  0  0  0  0  0  0  0  0  0
   34.9920   36.5530   32.3340 O   0  0  0  0  0  0  0  0  0  0  0  0
   33.4740   42.6490   21.3450 C   0  0  0  0  0  0  0  0  0  0  0  0
   34.8000   41.2440   23.9710 C   0  0  0  0  0  0  0  0  0  0  0  0
   34.6080   41.8310   21.1570 C   0  0  0  0  0  0  0  0  0  0  0  0
   33.6280   34.6530   36.2540 C   0  0  0  0  0  0  0  0  0  0  0  0
   36.7050   42.0710   22.9050 C   0  0  0  0  0  0  0  0  0  0  0  0
   38.2820   34.2530   29.8460 C   0  0  0  0  0  0  0  0  0  0  0  0
   35.2530   41.4460   22.5050 C   0  0  0  0  0  0  0  0  0  0  0  0
   35.3590   32.9000   34.2520 N   0  0  0  0  0  0  0  0  0  0  0  0
   37.2790   36.4730   29.4130 C   0  0  0  0  0  0  0  0  0  0  0  0
   34.9900   36.3290   33.5090 C   0  0  0  0  0  0  0  0  0  0  0  0
   33.5890   33.4270   35.6740 C   0  0  0  0  0  0  0  0  0  0  0  0
   33.7470   36.1110   34.2900 C   0  0  0  0  0  0  0  0  0  0  0  0
   35.1020   38.4200   29.9710 O   0  0  0  0  0  0  0  0  0  0  0  0
   36.6710   35.0740   31.3720 C   0  0  0  0  0  0  0  0  0  0  0  0
   33.3670   32.9760   33.1930 C   0  0  0  0  0  0  0  0  0  0  0  0
   38.5380   38.0820   27.9200 C   0  0  0  0  0  0  0  0  0  0  0  0
   37.2490   39.2920   25.9440 C   0  0  0  0  0  0  0  0  0  0  0  0
   34.4250   33.9160   33.7050 C   0  0  0  0  0  0  0  0  0  0  0  0
   35.0040   39.1440   25.2590 C   0  0  0  0  0  0  0  0  0  0  0  0
   32.4170   41.8350   22.1510 O   0  0  0  0  0  0  0  0  0  0  0  0
   33.4420   37.3670   35.0680 C   0  0  0  0  0  0  0  0  0  0  0  0
   35.6680   40.2040   24.4440 C   0  0  0  0  0  0  0  0  0  0  0  0
   37.3100   37.6050   28.6100 N   0  0  0  0  0  0  0  0  0  0  0  0
   37.2820   41.7400   24.2910 C   0  0  0  0  0  0  0  0  0  0  0  0
   34.0790   34.7400   34.9550 C   0  0  0  0  0  0  0  0  0  0  0  0
   36.3670   36.1750   30.4960 C   0  0  0  0  0  0  0  0  0  0  0  0
   37.0690   40.2320   24.6620 N   0  0  0  0  0  0  0  0  0  0  0  0
   33.2490   43.8360   21.2610 O   0  0  0  0  0  0  0  0  0  0  0  0
   38.0860   35.3930   29.0630 C   0  0  0  0  0  0  0  0  0  0  0  0
  2 21  1  0
  3 23  1  0
  5  7  1  0
  6  5  1  0
  7 17  1  0
  8 27  1  0
 10  8  1  0
 12 31  1  0
 13  2  2  0
 14 10  1  0
 14 12  1  0
 14  9  1  0
 15  4  1  0
 16 33  1  0
 17 19  1  0
 18  4  1  0
 18 11  1  0
 19 28  1  0
 20  5  1  0
 23 30  1  0
 24  1  1  0
 24  3  2  3
 25 22  1  0
 25 15  1  0
 25 32  1  0
 26  1  1  0
 29  9  1  0
 29 34  1  0
 29 26  1  0
 30 16  1  0
 31 34  1  0
 32 19  1  0
 32 18  1  0
 32 11  1  0
 33  5  1  0
 33 21  2  0
 34 24  1  0
 35  8  2  0
 36 16  2  0
 36 13  1  0
M  END
$$$$

     RDKit          3D

 33 35  0  0  0  0  0  0  0  0999 V2000
   37.0920   38.0870   26.7100 C   0  0  0  0  0  0  0  0  0  0  0  0
   33.1650   33.8670   33.5580 C   0  0  0  0  0  0  0  0  0  0  0  0
   33.8270   32.5490   33.6370 C   0  0  0  0  0  0  0  0  0  0  0  0
   40.7590   41.7440   24.7850 C   0  0  0  0  0  0  0  0  0  0  0  0
   35.0340   39.3400   27.6000 C   0  0  0  0  0  0  0  0  0  0  0  0
   35.6550   36.8800   31.3830 N   0  0  0  0  0  0  0  0  0  0  0  0
   35.0310   36.0320   32.4080 C   0  0  0  0  0  0  0  0  0  0  0  0
   32.3290   32.7700   30.3920 N   0  0  0  0  0  0  0  0  0  0  0  0
   34.8190   37.8840   29.5360 C   0  0  0  0  0  0  0  0  0  0  0  0
   36.2380   41.9100   24.5320 C   0  0  0  0  0  0  0  0  0  0  0  0
   37.7450   40.0410   24.1490 N   0  0  0  0  0  0  0  0  0  0  0  0
   34.8760   30.7850   30.9140 O   0  0  0  0  0  0  0  0  0  0  0  0
   40.2430   44.3680   21.4600 O   0  0  0  0  0  0  0  0  0  0  0  0
   36.3290   38.6150   25.6800 C   0  0  0  0  0  0  0  0  0  0  0  0
   42.1570   41.4590   22.2110 C   0  0  0  0  0  0  0  0  0  0  0  0
   33.6060   34.0380   32.1380 N   0  0  0  0  0  0  0  0  0  0  0  0
   34.4710   30.8650   32.0180 C   0  0  0  0  0  0  0  0  0  0  0  0
   36.7760   38.9590   24.3170 C   0  0  0  0  0  0  0  0  0  0  0  0
   33.5940   31.9940   32.2640 C   0  0  0  0  0  0  0  0  0  0  0  0
   41.7940   43.0520   23.1910 C   0  0  0  0  0  0  0  0  0  0  0  0
   33.0600   32.9620   31.4520 C   0  0  0  0  0  0  0  0  0  0  0  0
   40.4230   42.6280   23.4920 C   0  0  0  0  0  0  0  0  0  0  0  0
   37.5640   41.4070   24.3200 C   0  0  0  0  0  0  0  0  0  0  0  0
   33.6930   35.4420   31.7400 C   0  0  0  0  0  0  0  0  0  0  0  0
   35.6020   38.3660   28.3970 C   0  0  0  0  0  0  0  0  0  0  0  0
   38.3080   42.2380   23.1640 C   0  0  0  0  0  0  0  0  0  0  0  0
   38.8190   42.7800   21.8570 O   0  0  0  0  0  0  0  0  0  0  0  0
   35.6720   37.7590   30.7820 C   0  0  0  0  0  0  0  0  0  0  0  0
   35.5240   39.4970   26.3380 C   0  0  0  0  0  0  0  0  0  0  0  0
   39.7930   43.5430   22.0030 C   0  0  0  0  0  0  0  0  0  0  0  0
   39.1280   43.0120   24.0010 C   0  0  0  0  0  0  0  0  0  0  0  0
   34.6480   30.0860   33.0230 O   0  0  0  0  0  0  0  0  0  0  0  0
   36.8020   37.9070   28.0170 C   0  0  0  0  0  0  0  0  0  0  0  0
  1 33  1  0
  2  3  1  0
  5 25  1  0
  6  7  1  0
  8 21  2  0
  9 28  1  0
 11 18  1  0
 11 23  1  0
 12 17  2  0
 13 30  2  0
 14 18  1  0
 14 29  1  0
 14  1  1  0
 15 20  1  0
 16  2  1  0
 17 32  1  0
 19 17  1  0
 19  3  1  0
 20 22  1  0
 21 16  1  0
 21 19  1  0
 22 31  1  0
 22  4  1  0
 23 10  1  0
 24 16  1  0
 24  7  1  0
 25  9  1  0
 26 31  1  0
 26 23  1  0
 27 30  1  0
 27 26  1  0
 28  6  1  0
 29  5  2  0
 30 22  1  0
 33 25  1  0
M  END
$$$$

     RDKit          3D

 26 28  0  0  0  0  0  0  0  0999 V2000
   29.4650   33.4680   29.9190 O   0  0  0  0  0  0  0  0  0  0  0  0
   31.5820   33.6710   29.2370 N   0  0  0  0  0  0  0  0  0  0  0  0
   35.7820   35.8970   30.1310 C   0  0  0  0  0  0  0  0  0  0  0  0
   32.2550   35.4850   31.1530 C   0  0  0  0  0  0  0  0  0  0  0  0
   38.5930   43.9320   25.6020 C   0  0  0  0  0  0  0  0  0  0  0  0
   30.6180   33.7960   30.1320 C   0  0  0  0  0  0  0  0  0  0  0  0
   33.6780   35.1050   30.7310 C   0  0  0  0  0  0  0  0  0  0  0  0
   34.5810   36.0910   30.6930 N   0  0  0  0  0  0  0  0  0  0  0  0
   38.3550   37.8720   28.2860 C   0  0  0  0  0  0  0  0  0  0  0  0
   37.5580   43.1380   27.6100 O   0  0  0  0  0  0  0  0  0  0  0  0
   35.4160   33.6530   29.9170 C   0  0  0  0  0  0  0  0  0  0  0  0
   38.6710   41.5130   26.1720 C   0  0  0  0  0  0  0  0  0  0  0  0
   36.5650   36.9380   29.3490 C   0  0  0  0  0  0  0  0  0  0  0  0
   34.8410   38.6690   28.5610 C   0  0  0  0  0  0  0  0  0  0  0  0
   36.2710   34.6710   30.0390 N   0  0  0  0  0  0  0  0  0  0  0  0
   36.0740   38.0920   28.5870 C   0  0  0  0  0  0  0  0  0  0  0  0
   37.8540   42.7770   26.1420 C   0  0  0  0  0  0  0  0  0  0  0  0
   37.7320   40.6310   26.7920 O   0  0  0  0  0  0  0  0  0  0  0  0
   38.0170   36.9010   29.0990 C   0  0  0  0  0  0  0  0  0  0  0  0
   39.0700   44.9830   26.1350 C   0  0  0  0  0  0  0  0  0  0  0  0
   37.2530   38.6780   28.1250 C   0  0  0  0  0  0  0  0  0  0  0  0
   32.7850   32.9140   29.8600 C   0  0  0  0  0  0  0  0  0  0  0  0
   37.3340   39.9470   27.5240 C   0  0  0  0  0  0  0  0  0  0  0  0
   38.6430   43.8510   24.3020 O   0  0  0  0  0  0  0  0  0  0  0  0
   31.1450   34.4650   31.3370 C   0  0  0  0  0  0  0  0  0  0  0  0
   33.9480   33.9280   30.0380 C   0  0  0  0  0  0  0  0  0  0  0  0
  1  6  2  0
  2 22  1  0
  2  6  1  0
  3  8  2  0
  4 25  1  0
  5 20  2  0
  5 17  1  0
  6 25  1  0
  7  4  1  0
  8  7  1  0
  9 19  1  0
 11 26  1  0
 11 15  2  0
 12 18  1  0
 13  3  1  0
 14 16  1  0
 15  3  1  0
 16 13  1  0
 17 12  1  0
 17 10  1  0
 18 23  1  0
 19 13  1  0
 21  9  1  0
 21 16  2  0
 23 21  1  0
 24  5  1  0
 26 22  1  0
 26  7  1  0
M  END
$$$$

     RDKit          3D

 13 13  0  0  0  0  0  0  0  0999 V2000
   38.2400   42.2040   26.5280 O   0  0  0  0  0  0  0  0  0  0  0  0
   35.5980   36.7580   29.5830 C   0  0  0  0  0  0  0  0  0  0  0  0
   32.9830   37.2390   30.2620 C   0  0  0  0  0  0  0  0  0  0  0  0
   38.4780   41.1050   27.0420 C   0  0  0  0  0  0  0  0  0  0  0  0
   34.9190   37.8670   29.0420 C   0  0  0  0  0  0  0  0  0  0  0  0
   37.2480   40.5110   27.7850 C   0  0  0  0  0  0  0  0  0  0  0  0
   33.5800   36.2490   30.8340 C   0  0  0  0  0  0  0  0  0  0  0  0
   36.8550   39.1830   27.8490 C   0  0  0  0  0  0  0  0  0  0  0  0
   35.4040   38.8480   28.0810 C   0  0  0  0  0  0  0  0  0  0  0  0
   33.5900   38.0090   29.3840 C   0  0  0  0  0  0  0  0  0  0  0  0
   37.6440   38.4080   27.2970 N   0  0  0  0  0  0  0  0  0  0  0  0
   35.0160   35.8530   30.4530 C   0  0  0  0  0  0  0  0  0  0  0  0
   39.4170   40.4550   26.5500 O   0  0  0  0  0  0  0  0  0  0  0  0
  1  4  2  0
  2 12  1  0
  3  7  1  0
  4  6  1  0
  5 10  1  0
  5  2  2  0
  6  8  1  0
  8  9  1  0
  9  5  1  0
 10  3  2  0
 11  8  2  0
 12  7  2  0
 13  4  1  0
M  END
$$$$

     RDKit          3D

 28 30  0  0  0  0  0  0  0  0999 V2000
   35.8780   38.3520   28.1390 C   0  0  0  0  0  0  0  0  0  0  0  0
   35.3450   35.5950   32.1090 C   0  0  0  0  0  0  0  0  0  0  0  0
   33.6720   37.1400   28.7240 C   0  0  0  0  0  0  0  0  0  0  0  0
   34.8420   34.5830   35.5300 C   0  0  0  0  0  0  0  0  0  0  0  0
   35.7630   35.3330   30.0250 C   0  0  0  0  0  0  0  0  0  0  0  0
   34.8140   34.6240   33.0640 C   0  0  0  0  0  0  0  0  0  0  0  0
   30.5420   37.1470   26.6560 C   0  0  0  0  0  0  0  0  0  0  0  0
   36.7710   37.8950   29.2840 C   0  0  0  0  0  0  0  0  0  0  0  0
   39.6980   40.6010   25.0790 C   0  0  0  0  0  0  0  0  0  0  0  0
   37.2210   39.7170   25.1470 C   0  0  0  0  0  0  0  0  0  0  0  0
   34.3910   38.2230   27.8590 C   0  0  0  0  0  0  0  0  0  0  0  0
   36.5370   39.4530   27.4970 C   0  0  0  0  0  0  0  0  0  0  0  0
   34.1800   35.9560   33.0850 C   0  0  0  0  0  0  0  0  0  0  0  0
   29.4800   37.1810   27.3590 N   0  0  0  0  0  0  0  0  0  0  0  0
   35.9600   35.4690   35.2150 C   0  0  0  0  0  0  0  0  0  0  0  0
   34.9880   35.9820   30.7700 N   0  0  0  0  0  0  0  0  0  0  0  0
   30.6160   36.4260   25.3700 C   0  0  0  0  0  0  0  0  0  0  0  0
   37.5080   38.9860   26.4390 C   0  0  0  0  0  0  0  0  0  0  0  0
   31.8220   37.7870   27.0550 C   0  0  0  0  0  0  0  0  0  0  0  0
   38.1780   40.4830   23.0070 C   0  0  0  0  0  0  0  0  0  0  0  0
   38.4990   40.0090   24.3950 C   0  0  0  0  0  0  0  0  0  0  0  0
   36.4310   34.3530   29.4510 C   0  0  0  0  0  0  0  0  0  0  0  0
   35.4020   34.3870   34.3310 C   0  0  0  0  0  0  0  0  0  0  0  0
   36.2680   39.0260   24.3070 N   0  0  0  0  0  0  0  0  0  0  0  0
   34.7440   36.1780   29.2650 C   0  0  0  0  0  0  0  0  0  0  0  0
   34.1820   37.0810   33.3350 O   0  0  0  0  0  0  0  0  0  0  0  0
   36.0730   38.1980   30.5790 C   0  0  0  0  0  0  0  0  0  0  0  0
   32.2060   37.5870   28.4700 C   0  0  0  0  0  0  0  0  0  0  0  0
  1 12  1  0
  1  8  1  0
  2 16  1  0
  2  6  1  0
  2 13  1  0
  3 11  1  0
  5 16  1  0
  6 13  1  0
  6 23  1  0
  7 19  1  0
  7 14  2  0
  8 27  1  0
 10 24  1  0
 10 18  1  0
 11  1  1  0
 13 26  1  0
 15  4  1  0
 17  7  1  0
 18 12  1  0
 19 28  1  0
 20 21  1  0
 21  9  1  0
 21 10  1  0
 22  5  2  0
 23 15  1  0
 23  4  1  0
 25  3  1  0
 25  5  1  0
 25 16  1  0
 28  3  1  0
M  END
$$$$

     RDKit          3D

 22 22  0  0  0  0  0  0  0  0999 V2000
   38.9620   44.1700   25.3210 C   0  0  0  0  0  0  0  0  0  0  0  0
   36.5080   36.4520   30.0220 C   0  0  0  0  0  0  0  0  0  0  0  0
   39.6700   41.8530   25.8280 O   0  0  0  0  0  0  0  0  0  0  0  0
   35.7710   39.1970   30.2030 O   0  0  0  0  0  0  0  0  0  0  0  0
   35.7460   36.8200   31.2330 C   0  0  0  0  0  0  0  0  0  0  0  0
   39.8480   43.1980   26.0700 C   0  0  0  0  0  0  0  0  0  0  0  0
   35.1830   33.6600   32.9410 C   0  0  0  0  0  0  0  0  0  0  0  0
   35.6070   35.8920   32.2870 O   0  0  0  0  0  0  0  0  0  0  0  0
   36.9500   35.0490   29.8400 C   0  0  0  0  0  0  0  0  0  0  0  0
   34.2580   33.9570   33.7950 O   0  0  0  0  0  0  0  0  0  0  0  0
   35.6790   34.4820   31.7770 C   0  0  0  0  0  0  0  0  0  0  0  0
   33.2800   34.8100   34.2420 C   0  0  0  0  0  0  0  0  0  0  0  0
   33.4280   36.3090   33.9260 C   0  0  0  0  0  0  0  0  0  0  0  0
   38.7280   39.9920   26.5590 C   0  0  0  0  0  0  0  0  0  0  0  0
   40.3430   43.7370   26.9940 O   0  0  0  0  0  0  0  0  0  0  0  0
   37.2110   39.8400   28.5060 C   0  0  0  0  0  0  0  0  0  0  0  0
   36.9740   34.3330   31.1700 C   0  0  0  0  0  0  0  0  0  0  0  0
   36.6410   38.7690   29.3980 C   0  0  0  0  0  0  0  0  0  0  0  0
   38.4010   39.2160   27.8230 C   0  0  0  0  0  0  0  0  0  0  0  0
   37.0070   37.4580   29.2460 N   0  0  0  0  0  0  0  0  0  0  0  0
   32.2990   34.2020   35.1670 C   0  0  0  0  0  0  0  0  0  0  0  0
   38.2190   41.4150   26.3040 C   0  0  0  0  0  0  0  0  0  0  0  0
  1  6  1  0
  2  5  1  0
  3  6  1  0
  3 22  1  0
  5  8  1  0
  6 15  2  0
  7 10  1  0
  9  2  1  0
  9 17  1  0
 10 12  1  0
 11  8  1  0
 11  7  1  0
 12 21  1  0
 13 12  1  0
 14 19  1  0
 16 18  1  0
 17 11  1  0
 18  4  2  0
 19 16  1  0
 20 18  1  0
 20  2  2  3
 22 14  1  0
M  END
$$$$

     RDKit          3D

  8  8  0  0  0  0  0  0  0  0999 V2000
   38.1730   38.3590   26.6550 C   0  0  0  0  0  0  0  0  0  0  0  0
   35.5820   38.5360   30.1660 O   0  0  0  0  0  0  0  0  0  0  0  0
   36.9420   39.1220   28.4490 C   0  0  0  0  0  0  0  0  0  0  0  0
   36.3320   39.5260   29.6610 C   0  0  0  0  0  0  0  0  0  0  0  0
   37.7950   38.1740   28.0570 O   0  0  0  0  0  0  0  0  0  0  0  0
   36.2090   40.6860   30.0110 O   0  0  0  0  0  0  0  0  0  0  0  0
   37.1980   39.3570   26.0170 C   0  0  0  0  0  0  0  0  0  0  0  0
   36.3810   39.8540   27.2020 C   0  0  0  0  0  0  0  0  0  0  0  0
  1  5  1  0
  3  4  1  0
  4  6  2  0
  4  2  1  0
  5  3  1  0
  7  1  1  0
  7  8  1  0
  8  3  1  0
M  END
$$$$

     RDKit          3D

 20 21  0  0  0  0  0  0  0  0999 V2000
   38.5730   41.6180   26.4950 N   0  0  0  0  0  0  0  0  0  0  0  0
   38.6670   41.0080   25.4100 C   0  0  0  0  0  0  0  0  0  0  0  0
   39.3530   41.6850   24.2900 C   0  0  0  0  0  0  0  0  0  0  0  0
   39.9110   43.7410   26.8150 N   0  0  0  0  0  0  0  0  0  0  0  0
   38.1120   39.7490   24.8060 C   0  0  0  0  0  0  0  0  0  0  0  0
   39.1340   42.7930   26.7620 C   0  0  0  0  0  0  0  0  0  0  0  0
   34.4680   38.7260   27.1860 C   0  0  0  0  0  0  0  0  0  0  0  0
   33.5070   37.2080   30.3610 N   0  0  0  0  0  0  0  0  0  0  0  0
   35.9150   38.9400   27.4320 C   0  0  0  0  0  0  0  0  0  0  0  0
   39.8600   40.4900   23.3700 O   0  0  0  0  0  0  0  0  0  0  0  0
   37.6030   38.8830   25.6930 C   0  0  0  0  0  0  0  0  0  0  0  0
   32.6010   37.8700   28.3570 N   0  0  0  0  0  0  0  0  0  0  0  0
   33.9260   39.1220   26.0510 F   0  0  0  0  0  0  0  0  0  0  0  0
   37.3930   40.0440   23.6280 O   0  0  0  0  0  0  0  0  0  0  0  0
   35.3490   37.9510   29.4480 C   0  0  0  0  0  0  0  0  0  0  0  0
   36.6120   39.5390   26.4910 O   0  0  0  0  0  0  0  0  0  0  0  0
   36.2610   38.5490   28.7120 C   0  0  0  0  0  0  0  0  0  0  0  0
   34.3410   37.7500   29.4640 C   0  0  0  0  0  0  0  0  0  0  0  0
   32.5810   37.3020   29.6570 C   0  0  0  0  0  0  0  0  0  0  0  0
   33.8680   38.1100   28.3510 C   0  0  0  0  0  0  0  0  0  0  0  0
  1  6  1  0
  2  1  2  3
  3  2  1  0
  5 14  1  0
  5  2  1  0
  5 11  1  0
  6  4  3  0
  7  9  2  0
  7 20  1  0
  9 17  1  0
 10  3  1  0
 11 16  1  0
 12 19  1  0
 13  7  1  0
 15 18  1  0
 16  9  1  0
 17 15  2  0
 18  8  2  0
 19  8  1  0
 20 12  2  0
 20 18  1  0
M  END
$$$$

     RDKit          3D

 16 15  0  0  0  0  0  0  0  0999 V2000
   32.5420   36.9210   31.3840 C   0  0  0  0  0  0  0  0  0  0  0  0
   33.3960   35.8520   31.9780 C   0  0  0  0  0  0  0  0  0  0  0  0
   38.4740   39.2870   26.6440 C   0  0  0  0  0  0  0  0  0  0  0  0
   37.3230   38.5390   27.1970 C   0  0  0  0  0  0  0  0  0  0  0  0
   34.8120   36.0680   31.6400 C   0  0  0  0  0  0  0  0  0  0  0  0
   36.8500   39.6010   29.1410 C   0  0  0  0  0  0  0  0  0  0  0  0
   31.5580   36.5600   30.4030 O   0  0  0  0  0  0  0  0  0  0  0  0
   35.3440   37.7030   29.7610 C   0  0  0  0  0  0  0  0  0  0  0  0
   38.5320   40.4910   26.8730 O   0  0  0  0  0  0  0  0  0  0  0  0
   35.4210   36.9270   30.9430 N   0  0  0  0  0  0  0  0  0  0  0  0
   39.3180   38.8190   25.9480 O   0  0  0  0  0  0  0  0  0  0  0  0
   36.5440   34.2310   32.3860 C   0  0  0  0  0  0  0  0  0  0  0  0
   36.1050   40.6300   28.3510 O   0  0  0  0  0  0  0  0  0  0  0  0
   35.7810   39.1180   30.0780 C   0  0  0  0  0  0  0  0  0  0  0  0
   37.5320   38.1870   28.6530 C   0  0  0  0  0  0  0  0  0  0  0  0
   35.5490   35.0480   32.3520 C   0  0  0  0  0  0  0  0  0  0  0  0
  1  2  1  0
  3  9  1  0
  3  4  1  0
  4 15  1  0
  5  2  1  0
  5 16  1  0
  6 13  1  0
  6 14  1  0
  7  1  1  0
  8 14  1  0
  8 10  1  0
 10  5  1  0
 11  3  2  0
 15  6  1  0
 16 12  2  0
M  END
$$$$

     RDKit          3D

 10 11  0  0  0  0  0  0  0  0999 V2000
   37.2330   38.4810   29.2150 C   0  0  0  0  0  0  0  0  0  0  0  0
   36.4310   37.5200   29.8210 N   0  0  0  0  0  0  0  0  0  0  0  0
   38.1350   38.6320   25.8620 C   0  0  0  0  0  0  0  0  0  0  0  0
   34.6830   38.6340   28.4750 C   0  0  0  0  0  0  0  0  0  0  0  0
   35.2400   37.3410   29.0120 C   0  0  0  0  0  0  0  0  0  0  0  0
   37.0120   39.0150   27.9420 C   0  0  0  0  0  0  0  0  0  0  0  0
   34.0490   37.5050   28.2440 C   0  0  0  0  0  0  0  0  0  0  0  0
   38.0790   39.3150   27.1560 O   0  0  0  0  0  0  0  0  0  0  0  0
   35.9830   37.9500   31.0430 O   0  0  0  0  0  0  0  0  0  0  0  0
   35.6380   39.2800   27.4610 C   0  0  0  0  0  0  0  0  0  0  0  0
  1  2  1  0
  2  9  1  0
  3  8  1  0
  4 10  1  0
  4  5  1  0
  5  7  1  0
  5  2  1  0
  6  8  1  0
  6  1  1  0
  7  4  1  0
 10  6  1  0
M  END
$$$$

     RDKit          3D

 13 14  0  0  0  0  0  0  0  0999 V2000
   35.2840   40.7830   28.8000 O   0  0  0  0  0  0  0  0  0  0  0  0
   36.2790   36.6800   29.3320 N   0  0  0  0  0  0  0  0  0  0  0  0
   37.1120   37.4460   28.6170 C   0  0  0  0  0  0  0  0  0  0  0  0
   34.2860   36.4000   30.7280 C   0  0  0  0  0  0  0  0  0  0  0  0
   38.3710   37.0250   28.0890 C   0  0  0  0  0  0  0  0  0  0  0  0
   35.1240   35.3900   31.4490 C   0  0  0  0  0  0  0  0  0  0  0  0
   35.1260   37.1280   29.6520 C   0  0  0  0  0  0  0  0  0  0  0  0
   38.9510   38.2130   27.5790 N   0  0  0  0  0  0  0  0  0  0  0  0
   38.0430   39.3190   27.7280 C   0  0  0  0  0  0  0  0  0  0  0  0
   34.8580   38.6350   29.7490 C   0  0  0  0  0  0  0  0  0  0  0  0
   36.8800   38.8510   28.3490 C   0  0  0  0  0  0  0  0  0  0  0  0
   35.5070   39.4200   28.5580 C   0  0  0  0  0  0  0  0  0  0  0  0
   38.8390   35.7720   28.1650 O   0  0  0  0  0  0  0  0  0  0  0  0
  2  7  1  0
  3  2  2  0
  4  6  1  0
  5 13  2  0
  5  3  1  0
  7 10  1  0
  7  4  1  0
  8  9  2  0
  8  5  1  0
 11  9  1  0
 11 12  1  0
 11  3  1  0
 12  1  1  0
 12 10  1  0
M  END
$$$$

     RDKit          3D

 11 10  0  0  0  0  0  0  0  0999 V2000
   37.6010   38.8650   27.7490 C   0  0  0  0  0  0  0  0  0  0  0  0
   37.9280   39.8500   24.9360 C   0  0  0  0  0  0  0  0  0  0  0  0
   34.4570   35.8530   30.9340 C   0  0  0  0  0  0  0  0  0  0  0  0
   34.8690   35.0950   32.2780 C   0  0  0  0  0  0  0  0  0  0  0  0
   34.7310   35.5980   33.2030 O   0  0  0  0  0  0  0  0  0  0  0  0
   37.3010   38.1380   29.2040 C   0  0  0  0  0  0  0  0  0  0  0  0
   38.8720   38.0920   25.7700 O   0  0  0  0  0  0  0  0  0  0  0  0
   35.5290   36.9880   30.7990 C   0  0  0  0  0  0  0  0  0  0  0  0
   37.9220   38.8410   26.1260 C   0  0  0  0  0  0  0  0  0  0  0  0
   35.8870   37.5040   29.3990 C   0  0  0  0  0  0  0  0  0  0  0  0
   34.9790   37.3590   28.4810 O   0  0  0  0  0  0  0  0  0  0  0  0
  1  6  1  0
  2  9  1  0
  3  4  1  0
  4  5  2  0
  6 10  2  3
  7  9  2  0
  8  3  1  0
  9  1  1  0
 10  8  1  0
 11 10  1  0
M  END
$$$$
